cenarios/RMTQ1302_TSEA/DU_7_CodCondutores_391_MTQ_RMTQ1302.dss
! DU_7_CodCondutores_391_MTQ_RMTQ1302
New "Linecode.4ANA1MT4/0ANA1_1" nphases=1 basefreq=60 r1=1.51983869 x1=0.4333966 units=km normamps=110.0
New "Linecode.4ANA1MT4/0ANA1_2" nphases=2 basefreq=60 r1=1.51983869 x1=0.4333966 units=km normamps=110.0
New "Linecode.4ANA1MT4/0ANA1_3" nphases=3 basefreq=60 r1=1.51983869 x1=0.4333966 units=km normamps=110.0
New "Linecode.4ANA1MT4/0ANA1_4" nphases=4 basefreq=60 r1=1.51983869 x1=0.4333966 units=km normamps=110.0
New "Linecode.4ANA1MT4AC1_1" nphases=1 basefreq=60 r1=1.51910424 x1=0.54827702 units=km normamps=110.0
New "Linecode.4ANA1MT4AC1_2" nphases=2 basefreq=60 r1=1.51910424 x1=0.54827702 units=km normamps=110.0
New "Linecode.4ANA1MT4AC1_3" nphases=3 basefreq=60 r1=1.51910424 x1=0.54827702 units=km normamps=110.0
New "Linecode.4ANA1MT4AC1_4" nphases=4 basefreq=60 r1=1.51910424 x1=0.54827702 units=km normamps=110.0
New "Linecode.4ANA1MT4AN1_1" nphases=1 basefreq=60 r1=1.67265605 x1=0.88559842 units=km normamps=110.0
New "Linecode.4ANA1MT4AN1_2" nphases=2 basefreq=60 r1=1.67265605 x1=0.88559842 units=km normamps=110.0
New "Linecode.4ANA1MT4AN1_3" nphases=3 basefreq=60 r1=1.67265605 x1=0.88559842 units=km normamps=110.0
New "Linecode.4ANA1MT4AN1_4" nphases=4 basefreq=60 r1=1.67265605 x1=0.88559842 units=km normamps=110.0
New "Linecode.4ANA1MT4ANA1_1" nphases=1 basefreq=60 r1=1.60486304 x1=0.95765888 units=km normamps=110.0
New "Linecode.4ANA1MT4ANA1_2" nphases=2 basefreq=60 r1=1.60486304 x1=0.95765888 units=km normamps=110.0
New "Linecode.4ANA1MT4ANA1_3" nphases=3 basefreq=60 r1=1.60486304 x1=0.95765888 units=km normamps=110.0
New "Linecode.4ANA1MT4ANA1_4" nphases=4 basefreq=60 r1=1.60486304 x1=0.95765888 units=km normamps=110.0
New "Linecode.4ANA1MT5AZN1_1" nphases=1 basefreq=60 r1=1.75787353 x1=0.91543066 units=km normamps=110.0
New "Linecode.4ANA1MT5AZN1_2" nphases=2 basefreq=60 r1=1.75787353 x1=0.91543066 units=km normamps=110.0
New "Linecode.4ANA1MT5AZN1_3" nphases=3 basefreq=60 r1=1.75787353 x1=0.91543066 units=km normamps=110.0
New "Linecode.4ANA1MT5AZN1_4" nphases=4 basefreq=60 r1=1.75787353 x1=0.91543066 units=km normamps=110.0
New "Linecode.4ANA1MT6AZN1_1" nphases=1 basefreq=60 r1=0.17010734 x1=0.48228263 units=km normamps=110.0
New "Linecode.4ANA1MT6AZN1_2" nphases=2 basefreq=60 r1=0.17010734 x1=0.48228263 units=km normamps=110.0
New "Linecode.4ANA1MT6AZN1_3" nphases=3 basefreq=60 r1=0.17010734 x1=0.48228263 units=km normamps=110.0
New "Linecode.4ANA1MT6AZN1_4" nphases=4 basefreq=60 r1=0.17010734 x1=0.48228263 units=km normamps=110.0
New "Linecode.4ANA1MT70AX1_1" nphases=1 basefreq=60 r1=1.63970291 x1=0.97614836 units=km normamps=110.0
New "Linecode.4ANA1MT70AX1_2" nphases=2 basefreq=60 r1=1.63970291 x1=0.97614836 units=km normamps=110.0
New "Linecode.4ANA1MT70AX1_3" nphases=3 basefreq=60 r1=1.63970291 x1=0.97614836 units=km normamps=110.0
New "Linecode.4ANA1MT70AX1_4" nphases=4 basefreq=60 r1=1.63970291 x1=0.97614836 units=km normamps=110.0
New "Linecode.1/0AC1MT1/0AC1_1" nphases=1 basefreq=60 r1=0.65821504 x1=0.93854862 units=km normamps=200.0
New "Linecode.1/0AC1MT1/0AC1_2" nphases=2 basefreq=60 r1=0.65821504 x1=0.93854862 units=km normamps=200.0
New "Linecode.1/0AC1MT1/0AC1_3" nphases=3 basefreq=60 r1=0.65821504 x1=0.93854862 units=km normamps=200.0
New "Linecode.1/0AC1MT1/0AC1_4" nphases=4 basefreq=60 r1=0.65821504 x1=0.93854862 units=km normamps=200.0
New "Linecode.1/0AC1MT1/0AN1_1" nphases=1 basefreq=60 r1=0.65821504 x1=0.93854862 units=km normamps=200.0
New "Linecode.1/0AC1MT1/0AN1_2" nphases=2 basefreq=60 r1=0.65821504 x1=0.93854862 units=km normamps=200.0
New "Linecode.1/0AC1MT1/0AN1_3" nphases=3 basefreq=60 r1=0.65821504 x1=0.93854862 units=km normamps=200.0
New "Linecode.1/0AC1MT1/0AN1_4" nphases=4 basefreq=60 r1=0.65821504 x1=0.93854862 units=km normamps=200.0
New "Linecode.1/0AC1MT4AN1_1" nphases=1 basefreq=60 r1=0.65821504 x1=0.93854862 units=km normamps=200.0
New "Linecode.1/0AC1MT4AN1_2" nphases=2 basefreq=60 r1=0.65821504 x1=0.93854862 units=km normamps=200.0
New "Linecode.1/0AC1MT4AN1_3" nphases=3 basefreq=60 r1=0.65821504 x1=0.93854862 units=km normamps=200.0
New "Linecode.1/0AC1MT4AN1_4" nphases=4 basefreq=60 r1=0.65821504 x1=0.93854862 units=km normamps=200.0
New "Linecode.4ANA2MT1/0AN1_1" nphases=1 basefreq=60 r1=1.51978492 x1=0.41655617 units=km normamps=110.0
New "Linecode.4ANA2MT1/0AN1_2" nphases=2 basefreq=60 r1=1.51978492 x1=0.41655617 units=km normamps=110.0
New "Linecode.4ANA2MT1/0AN1_3" nphases=3 basefreq=60 r1=1.51978492 x1=0.41655617 units=km normamps=110.0
New "Linecode.4ANA2MT1/0AN1_4" nphases=4 basefreq=60 r1=1.51978492 x1=0.41655617 units=km normamps=110.0
New "Linecode.4ANA2MT3/0AN1_1" nphases=1 basefreq=60 r1=1.51983869 x1=0.4333966 units=km normamps=110.0
New "Linecode.4ANA2MT3/0AN1_2" nphases=2 basefreq=60 r1=1.51983869 x1=0.4333966 units=km normamps=110.0
New "Linecode.4ANA2MT3/0AN1_3" nphases=3 basefreq=60 r1=1.51983869 x1=0.4333966 units=km normamps=110.0
New "Linecode.4ANA2MT3/0AN1_4" nphases=4 basefreq=60 r1=1.51983869 x1=0.4333966 units=km normamps=110.0
New "Linecode.4ANA2MT4AN1_1" nphases=1 basefreq=60 r1=1.54563999 x1=0.445158 units=km normamps=110.0
New "Linecode.4ANA2MT4AN1_2" nphases=2 basefreq=60 r1=1.54563999 x1=0.445158 units=km normamps=110.0
New "Linecode.4ANA2MT4AN1_3" nphases=3 basefreq=60 r1=1.54563999 x1=0.445158 units=km normamps=110.0
New "Linecode.4ANA2MT4AN1_4" nphases=4 basefreq=60 r1=1.54563999 x1=0.445158 units=km normamps=110.0
New "Linecode.4ANA2MT4ANA1_1" nphases=1 basefreq=60 r1=1.54563999 x1=0.445158 units=km normamps=110.0
New "Linecode.4ANA2MT4ANA1_2" nphases=2 basefreq=60 r1=1.54563999 x1=0.445158 units=km normamps=110.0
New "Linecode.4ANA2MT4ANA1_3" nphases=3 basefreq=60 r1=1.54563999 x1=0.445158 units=km normamps=110.0
New "Linecode.4ANA2MT4ANA1_4" nphases=4 basefreq=60 r1=1.54563999 x1=0.445158 units=km normamps=110.0
New "Linecode.4ANA2MT6AN1_1" nphases=1 basefreq=60 r1=1.51910424 x1=0.54827696 units=km normamps=110.0
New "Linecode.4ANA2MT6AN1_2" nphases=2 basefreq=60 r1=1.51910424 x1=0.54827696 units=km normamps=110.0
New "Linecode.4ANA2MT6AN1_3" nphases=3 basefreq=60 r1=1.51910424 x1=0.54827696 units=km normamps=110.0
New "Linecode.4ANA2MT6AN1_4" nphases=4 basefreq=60 r1=1.51910424 x1=0.54827696 units=km normamps=110.0
New "Linecode.1/0AC1MT4ANA1_1" nphases=1 basefreq=60 r1=0.65821504 x1=0.93854862 units=km normamps=200.0
New "Linecode.1/0AC1MT4ANA1_2" nphases=2 basefreq=60 r1=0.65821504 x1=0.93854862 units=km normamps=200.0
New "Linecode.1/0AC1MT4ANA1_3" nphases=3 basefreq=60 r1=0.65821504 x1=0.93854862 units=km normamps=200.0
New "Linecode.1/0AC1MT4ANA1_4" nphases=4 basefreq=60 r1=0.65821504 x1=0.93854862 units=km normamps=200.0
New "Linecode.4ANA3MT1/0AN1_1" nphases=1 basefreq=60 r1=1.51978492 x1=0.41655617 units=km normamps=110.0
New "Linecode.4ANA3MT1/0AN1_2" nphases=2 basefreq=60 r1=1.51978492 x1=0.41655617 units=km normamps=110.0
New "Linecode.4ANA3MT1/0AN1_3" nphases=3 basefreq=60 r1=1.51978492 x1=0.41655617 units=km normamps=110.0
New "Linecode.4ANA3MT1/0AN1_4" nphases=4 basefreq=60 r1=1.51978492 x1=0.41655617 units=km normamps=110.0
New "Linecode.4ANA3MT1/0ANA1_1" nphases=1 basefreq=60 r1=1.51998031 x1=0.4336991 units=km normamps=110.0
New "Linecode.4ANA3MT1/0ANA1_2" nphases=2 basefreq=60 r1=1.51998031 x1=0.4336991 units=km normamps=110.0
New "Linecode.4ANA3MT1/0ANA1_3" nphases=3 basefreq=60 r1=1.51998031 x1=0.4336991 units=km normamps=110.0
New "Linecode.4ANA3MT1/0ANA1_4" nphases=4 basefreq=60 r1=1.51998031 x1=0.4336991 units=km normamps=110.0
New "Linecode.4ANA3MT3/0AN1_1" nphases=1 basefreq=60 r1=1.51983869 x1=0.4333966 units=km normamps=110.0
New "Linecode.4ANA3MT3/0AN1_2" nphases=2 basefreq=60 r1=1.51983869 x1=0.4333966 units=km normamps=110.0
New "Linecode.4ANA3MT3/0AN1_3" nphases=3 basefreq=60 r1=1.51983869 x1=0.4333966 units=km normamps=110.0
New "Linecode.4ANA3MT3/0AN1_4" nphases=4 basefreq=60 r1=1.51983869 x1=0.4333966 units=km normamps=110.0
New "Linecode.1/0AC1MT6CN1_1" nphases=1 basefreq=60 r1=0.65821504 x1=0.93854862 units=km normamps=200.0
New "Linecode.1/0AC1MT6CN1_2" nphases=2 basefreq=60 r1=0.65821504 x1=0.93854862 units=km normamps=200.0
New "Linecode.1/0AC1MT6CN1_3" nphases=3 basefreq=60 r1=0.65821504 x1=0.93854862 units=km normamps=200.0
New "Linecode.1/0AC1MT6CN1_4" nphases=4 basefreq=60 r1=0.65821504 x1=0.93854862 units=km normamps=200.0
New "Linecode.1/0AC2MT1/0AN1_1" nphases=1 basefreq=60 r1=0.65821504 x1=0.93854862 units=km normamps=200.0
New "Linecode.1/0AC2MT1/0AN1_2" nphases=2 basefreq=60 r1=0.65821504 x1=0.93854862 units=km normamps=200.0
New "Linecode.1/0AC2MT1/0AN1_3" nphases=3 basefreq=60 r1=0.65821504 x1=0.93854862 units=km normamps=200.0
New "Linecode.1/0AC2MT1/0AN1_4" nphases=4 basefreq=60 r1=0.65821504 x1=0.93854862 units=km normamps=200.0
New "Linecode.1/0AC2MT3/0AN1_1" nphases=1 basefreq=60 r1=0.65821504 x1=0.93854862 units=km normamps=200.0
New "Linecode.1/0AC2MT3/0AN1_2" nphases=2 basefreq=60 r1=0.65821504 x1=0.93854862 units=km normamps=200.0
New "Linecode.1/0AC2MT3/0AN1_3" nphases=3 basefreq=60 r1=0.65821504 x1=0.93854862 units=km normamps=200.0
New "Linecode.1/0AC2MT3/0AN1_4" nphases=4 basefreq=60 r1=0.65821504 x1=0.93854862 units=km normamps=200.0
New "Linecode.4ANA3MT4/0ANA1_1" nphases=1 basefreq=60 r1=1.51983869 x1=0.4333966 units=km normamps=110.0
New "Linecode.4ANA3MT4/0ANA1_2" nphases=2 basefreq=60 r1=1.51983869 x1=0.4333966 units=km normamps=110.0
New "Linecode.4ANA3MT4/0ANA1_3" nphases=3 basefreq=60 r1=1.51983869 x1=0.4333966 units=km normamps=110.0
New "Linecode.4ANA3MT4/0ANA1_4" nphases=4 basefreq=60 r1=1.51983869 x1=0.4333966 units=km normamps=110.0
New "Linecode.4ANA3MT4AC1_1" nphases=1 basefreq=60 r1=1.51910424 x1=0.54827702 units=km normamps=110.0
New "Linecode.4ANA3MT4AC1_2" nphases=2 basefreq=60 r1=1.51910424 x1=0.54827702 units=km normamps=110.0
New "Linecode.4ANA3MT4AC1_3" nphases=3 basefreq=60 r1=1.51910424 x1=0.54827702 units=km normamps=110.0
New "Linecode.4ANA3MT4AC1_4" nphases=4 basefreq=60 r1=1.51910424 x1=0.54827702 units=km normamps=110.0
New "Linecode.4ANA3MT4AN1_1" nphases=1 basefreq=60 r1=1.54565 x1=0.45842 units=km normamps=110.0
New "Linecode.4ANA3MT4AN1_2" nphases=2 basefreq=60 r1=1.54565 x1=0.45842 units=km normamps=110.0
New "Linecode.4ANA3MT4AN1_3" nphases=3 basefreq=60 r1=1.54565 x1=0.45842 units=km normamps=110.0
New "Linecode.4ANA3MT4AN1_4" nphases=4 basefreq=60 r1=1.54565 x1=0.45842 units=km normamps=110.0
New "Linecode.4ANA3MT4ANA1_1" nphases=1 basefreq=60 r1=1.54566001 x1=0.458413 units=km normamps=110.0
New "Linecode.4ANA3MT4ANA1_2" nphases=2 basefreq=60 r1=1.54566001 x1=0.458413 units=km normamps=110.0
New "Linecode.4ANA3MT4ANA1_3" nphases=3 basefreq=60 r1=1.54566001 x1=0.458413 units=km normamps=110.0
New "Linecode.4ANA3MT4ANA1_4" nphases=4 basefreq=60 r1=1.54566001 x1=0.458413 units=km normamps=110.0
New "Linecode.4ANA3MT5AZN1_1" nphases=1 basefreq=60 r1=1.66420733 x1=0.45988264 units=km normamps=110.0
New "Linecode.4ANA3MT5AZN1_2" nphases=2 basefreq=60 r1=1.66420733 x1=0.45988264 units=km normamps=110.0
New "Linecode.4ANA3MT5AZN1_3" nphases=3 basefreq=60 r1=1.66420733 x1=0.45988264 units=km normamps=110.0
New "Linecode.4ANA3MT5AZN1_4" nphases=4 basefreq=60 r1=1.66420733 x1=0.45988264 units=km normamps=110.0
New "Linecode.1/0AC2MT4AN1_1" nphases=1 basefreq=60 r1=0.65821504 x1=0.93854862 units=km normamps=200.0
New "Linecode.1/0AC2MT4AN1_2" nphases=2 basefreq=60 r1=0.65821504 x1=0.93854862 units=km normamps=200.0
New "Linecode.1/0AC2MT4AN1_3" nphases=3 basefreq=60 r1=0.65821504 x1=0.93854862 units=km normamps=200.0
New "Linecode.1/0AC2MT4AN1_4" nphases=4 basefreq=60 r1=0.65821504 x1=0.93854862 units=km normamps=200.0
New "Linecode.1/0AC2MT4ANA1_1" nphases=1 basefreq=60 r1=0.65821504 x1=0.93854862 units=km normamps=200.0
New "Linecode.1/0AC2MT4ANA1_2" nphases=2 basefreq=60 r1=0.65821504 x1=0.93854862 units=km normamps=200.0
New "Linecode.1/0AC2MT4ANA1_3" nphases=3 basefreq=60 r1=0.65821504 x1=0.93854862 units=km normamps=200.0
New "Linecode.1/0AC2MT4ANA1_4" nphases=4 basefreq=60 r1=0.65821504 x1=0.93854862 units=km normamps=200.0
New "Linecode.1/0AC2MT6CN1_1" nphases=1 basefreq=60 r1=0.65821504 x1=0.93854862 units=km normamps=200.0
New "Linecode.1/0AC2MT6CN1_2" nphases=2 basefreq=60 r1=0.65821504 x1=0.93854862 units=km normamps=200.0
New "Linecode.1/0AC2MT6CN1_3" nphases=3 basefreq=60 r1=0.65821504 x1=0.93854862 units=km normamps=200.0
New "Linecode.1/0AC2MT6CN1_4" nphases=4 basefreq=60 r1=0.65821504 x1=0.93854862 units=km normamps=200.0
New "Linecode.1/0AC3MT1/0AN1_1" nphases=1 basefreq=60 r1=0.65821504 x1=0.93854862 units=km normamps=200.0
New "Linecode.1/0AC3MT1/0AN1_2" nphases=2 basefreq=60 r1=0.65821504 x1=0.93854862 units=km normamps=200.0
New "Linecode.1/0AC3MT1/0AN1_3" nphases=3 basefreq=60 r1=0.65821504 x1=0.93854862 units=km normamps=200.0
New "Linecode.1/0AC3MT1/0AN1_4" nphases=4 basefreq=60 r1=0.65821504 x1=0.93854862 units=km normamps=200.0
New "Linecode.1/0AC3MT120A1_1" nphases=1 basefreq=60 r1=0.65821504 x1=0.93854862 units=km normamps=200.0
New "Linecode.1/0AC3MT120A1_2" nphases=2 basefreq=60 r1=0.65821504 x1=0.93854862 units=km normamps=200.0
New "Linecode.1/0AC3MT120A1_3" nphases=3 basefreq=60 r1=0.65821504 x1=0.93854862 units=km normamps=200.0
New "Linecode.1/0AC3MT120A1_4" nphases=4 basefreq=60 r1=0.65821504 x1=0.93854862 units=km normamps=200.0
New "Linecode.1/0AC3MT3/0AN1_1" nphases=1 basefreq=60 r1=0.65821504 x1=0.93854862 units=km normamps=200.0
New "Linecode.1/0AC3MT3/0AN1_2" nphases=2 basefreq=60 r1=0.65821504 x1=0.93854862 units=km normamps=200.0
New "Linecode.1/0AC3MT3/0AN1_3" nphases=3 basefreq=60 r1=0.65821504 x1=0.93854862 units=km normamps=200.0
New "Linecode.1/0AC3MT3/0AN1_4" nphases=4 basefreq=60 r1=0.65821504 x1=0.93854862 units=km normamps=200.0
New "Linecode.4ANA3MT6AZN1_1" nphases=1 basefreq=60 r1=0.17010734 x1=0.48228263 units=km normamps=110.0
New "Linecode.4ANA3MT6AZN1_2" nphases=2 basefreq=60 r1=0.17010734 x1=0.48228263 units=km normamps=110.0
New "Linecode.4ANA3MT6AZN1_3" nphases=3 basefreq=60 r1=0.17010734 x1=0.48228263 units=km normamps=110.0
New "Linecode.4ANA3MT6AZN1_4" nphases=4 basefreq=60 r1=0.17010734 x1=0.48228263 units=km normamps=110.0
New "Linecode.1/0AC3MT4AN1_1" nphases=1 basefreq=60 r1=0.65821504 x1=0.93854862 units=km normamps=200.0
New "Linecode.1/0AC3MT4AN1_2" nphases=2 basefreq=60 r1=0.65821504 x1=0.93854862 units=km normamps=200.0
New "Linecode.1/0AC3MT4AN1_3" nphases=3 basefreq=60 r1=0.65821504 x1=0.93854862 units=km normamps=200.0
New "Linecode.1/0AC3MT4AN1_4" nphases=4 basefreq=60 r1=0.65821504 x1=0.93854862 units=km normamps=200.0
New "Linecode.4ANA3MT6CN1_1" nphases=1 basefreq=60 r1=1.51910424 x1=0.54827696 units=km normamps=110.0
New "Linecode.4ANA3MT6CN1_2" nphases=2 basefreq=60 r1=1.51910424 x1=0.54827696 units=km normamps=110.0
New "Linecode.4ANA3MT6CN1_3" nphases=3 basefreq=60 r1=1.51910424 x1=0.54827696 units=km normamps=110.0
New "Linecode.4ANA3MT6CN1_4" nphases=4 basefreq=60 r1=1.51910424 x1=0.54827696 units=km normamps=110.0
New "Linecode.4ANA3MT70AX1_1" nphases=1 basefreq=60 r1=1.51910412 x1=0.54827696 units=km normamps=110.0
New "Linecode.4ANA3MT70AX1_2" nphases=2 basefreq=60 r1=1.51910412 x1=0.54827696 units=km normamps=110.0
New "Linecode.4ANA3MT70AX1_3" nphases=3 basefreq=60 r1=1.51910412 x1=0.54827696 units=km normamps=110.0
New "Linecode.4ANA3MT70AX1_4" nphases=4 basefreq=60 r1=1.51910412 x1=0.54827696 units=km normamps=110.0
New "Linecode.4CN3MT4CN1_1" nphases=1 basefreq=60 r1=0.9432047 x1=0.47737514 units=km normamps=130.0
New "Linecode.4CN3MT4CN1_2" nphases=2 basefreq=60 r1=0.9432047 x1=0.47737514 units=km normamps=130.0
New "Linecode.4CN3MT4CN1_3" nphases=3 basefreq=60 r1=0.9432047 x1=0.47737514 units=km normamps=130.0
New "Linecode.4CN3MT4CN1_4" nphases=4 basefreq=60 r1=0.9432047 x1=0.47737514 units=km normamps=130.0
New "Linecode.4X35MM3MT4X35MM1_1" nphases=1 basefreq=60 r1=1.0 x1=1.0 units=km normamps=112.0
New "Linecode.4X35MM3MT4X35MM1_2" nphases=2 basefreq=60 r1=1.0 x1=1.0 units=km normamps=112.0
New "Linecode.4X35MM3MT4X35MM1_3" nphases=3 basefreq=60 r1=1.0 x1=1.0 units=km normamps=112.0
New "Linecode.4X35MM3MT4X35MM1_4" nphases=4 basefreq=60 r1=1.0 x1=1.0 units=km normamps=112.0
New "Linecode.556ANA3MT556ANA1_1" nphases=1 basefreq=60 r1=0.19040368 x1=0.37917193 units=km normamps=430.0
New "Linecode.556ANA3MT556ANA1_2" nphases=2 basefreq=60 r1=0.19040368 x1=0.37917193 units=km normamps=430.0
New "Linecode.556ANA3MT556ANA1_3" nphases=3 basefreq=60 r1=0.19040368 x1=0.37917193 units=km normamps=430.0
New "Linecode.556ANA3MT556ANA1_4" nphases=4 basefreq=60 r1=0.19040368 x1=0.37917193 units=km normamps=430.0
New "Linecode.5AZN1MT70AX1_1" nphases=1 basefreq=60 r1=0.68800002 x1=0.76283574 units=km normamps=229.0
New "Linecode.5AZN1MT70AX1_2" nphases=2 basefreq=60 r1=0.68800002 x1=0.76283574 units=km normamps=229.0
New "Linecode.5AZN1MT70AX1_3" nphases=3 basefreq=60 r1=0.68800002 x1=0.76283574 units=km normamps=229.0
New "Linecode.5AZN1MT70AX1_4" nphases=4 basefreq=60 r1=0.68800002 x1=0.76283574 units=km normamps=229.0
New "Linecode.5AZN3MT5AZN1_1" nphases=1 basefreq=60 r1=0.65799999 x1=0.93854862 units=km normamps=229.0
New "Linecode.5AZN3MT5AZN1_2" nphases=2 basefreq=60 r1=0.65799999 x1=0.93854862 units=km normamps=229.0
New "Linecode.5AZN3MT5AZN1_3" nphases=3 basefreq=60 r1=0.65799999 x1=0.93854862 units=km normamps=229.0
New "Linecode.5AZN3MT5AZN1_4" nphases=4 basefreq=60 r1=0.65799999 x1=0.93854862 units=km normamps=229.0
New "Linecode.6ANA1MT6AN1_1" nphases=1 basefreq=60 r1=2.41880321 x1=0.57997822 units=km normamps=100.0
New "Linecode.6ANA1MT6AN1_2" nphases=2 basefreq=60 r1=2.41880321 x1=0.57997822 units=km normamps=100.0
New "Linecode.6ANA1MT6AN1_3" nphases=3 basefreq=60 r1=2.41880321 x1=0.57997822 units=km normamps=100.0
New "Linecode.6ANA1MT6AN1_4" nphases=4 basefreq=60 r1=2.41880321 x1=0.57997822 units=km normamps=100.0
New "Linecode.6ANA2MT6AN1_1" nphases=1 basefreq=60 r1=2.41880321 x1=0.57997822 units=km normamps=100.0
New "Linecode.6ANA2MT6AN1_2" nphases=2 basefreq=60 r1=2.41880321 x1=0.57997822 units=km normamps=100.0
New "Linecode.6ANA2MT6AN1_3" nphases=3 basefreq=60 r1=2.41880321 x1=0.57997822 units=km normamps=100.0
New "Linecode.6ANA2MT6AN1_4" nphases=4 basefreq=60 r1=2.41880321 x1=0.57997822 units=km normamps=100.0
New "Linecode.1/0AC3MT4ANA1_1" nphases=1 basefreq=60 r1=0.65821504 x1=0.93854862 units=km normamps=200.0
New "Linecode.1/0AC3MT4ANA1_2" nphases=2 basefreq=60 r1=0.65821504 x1=0.93854862 units=km normamps=200.0
New "Linecode.1/0AC3MT4ANA1_3" nphases=3 basefreq=60 r1=0.65821504 x1=0.93854862 units=km normamps=200.0
New "Linecode.1/0AC3MT4ANA1_4" nphases=4 basefreq=60 r1=0.65821504 x1=0.93854862 units=km normamps=200.0
New "Linecode.1/0AC3MT5AZN1_1" nphases=1 basefreq=60 r1=0.65821504 x1=0.93854862 units=km normamps=200.0
New "Linecode.1/0AC3MT5AZN1_2" nphases=2 basefreq=60 r1=0.65821504 x1=0.93854862 units=km normamps=200.0
New "Linecode.1/0AC3MT5AZN1_3" nphases=3 basefreq=60 r1=0.65821504 x1=0.93854862 units=km normamps=200.0
New "Linecode.1/0AC3MT5AZN1_4" nphases=4 basefreq=60 r1=0.65821504 x1=0.93854862 units=km normamps=200.0
New "Linecode.6ANA3MT4AN1_1" nphases=1 basefreq=60 r1=2.41880321 x1=0.57997822 units=km normamps=100.0
New "Linecode.6ANA3MT4AN1_2" nphases=2 basefreq=60 r1=2.41880321 x1=0.57997822 units=km normamps=100.0
New "Linecode.6ANA3MT4AN1_3" nphases=3 basefreq=60 r1=2.41880321 x1=0.57997822 units=km normamps=100.0
New "Linecode.6ANA3MT4AN1_4" nphases=4 basefreq=60 r1=2.41880321 x1=0.57997822 units=km normamps=100.0
New "Linecode.1/0AC3MT6CN1_1" nphases=1 basefreq=60 r1=0.65821504 x1=0.93854862 units=km normamps=200.0
New "Linecode.1/0AC3MT6CN1_2" nphases=2 basefreq=60 r1=0.65821504 x1=0.93854862 units=km normamps=200.0
New "Linecode.1/0AC3MT6CN1_3" nphases=3 basefreq=60 r1=0.65821504 x1=0.93854862 units=km normamps=200.0
New "Linecode.1/0AC3MT6CN1_4" nphases=4 basefreq=60 r1=0.65821504 x1=0.93854862 units=km normamps=200.0
New "Linecode.6ANA3MT6AN1_1" nphases=1 basefreq=60 r1=2.41880321 x1=0.57997822 units=km normamps=100.0
New "Linecode.6ANA3MT6AN1_2" nphases=2 basefreq=60 r1=2.41880321 x1=0.57997822 units=km normamps=100.0
New "Linecode.6ANA3MT6AN1_3" nphases=3 basefreq=60 r1=2.41880321 x1=0.57997822 units=km normamps=100.0
New "Linecode.6ANA3MT6AN1_4" nphases=4 basefreq=60 r1=2.41880321 x1=0.57997822 units=km normamps=100.0
New "Linecode.6CC3MT4AN1_1" nphases=1 basefreq=60 r1=1.48590624 x1=0.3809562 units=km normamps=100.0
New "Linecode.6CC3MT4AN1_2" nphases=2 basefreq=60 r1=1.48590624 x1=0.3809562 units=km normamps=100.0
New "Linecode.6CC3MT4AN1_3" nphases=3 basefreq=60 r1=1.48590624 x1=0.3809562 units=km normamps=100.0
New "Linecode.6CC3MT4AN1_4" nphases=4 basefreq=60 r1=1.48590624 x1=0.3809562 units=km normamps=100.0
...
