cenarios/RMTQ1302_TSEA/DU_7_ChavesMT_391_MTQ_RMTQ1302.dss
! DU_7_ChavesMT_391_MTQ_RMTQ1302
New "Line.CMT_260FF006724079" phases=3 bus1="MT428159294520363MT02.1.2.3" bus2="MT352569225ID.1.2.3" r1=0.001 r0=0.001 x1=0 x0=0 c1=0 c0=0 length=0.001 Switch=y 
New "Line.CMT_295FF006722699" phases=3 bus1="MT4299421945494612MT02.1.2.3" bus2="MT352425266ID.1.2.3" r1=0.001 r0=0.001 x1=0 x0=0 c1=0 c0=0 length=0.001 Switch=y 
New "Line.CMT_295FF006717859" phases=3 bus1="MT43557245342558MT02.1.2.3" bus2="MT351938051ID.1.2.3" r1=0.001 r0=0.001 x1=0 x0=0 c1=0 c0=0 length=0.001 Switch=y 
New "Line.CMT_295BF006585999" phases=3 bus1="MT4297835345359269MT02.1.2.3" bus2="MT337857179ID.1.2.3" r1=0.001 r0=0.001 x1=0 x0=0 c1=0 c0=0 length=0.001 Switch=y 
New "Line.CMT_260RL006376098_A" phases=3 bus1="MT4294639845275639MT02.1.2.3" bus2="MT353252361ID.1.2.3" r1=0.001 r0=0.001 x1=0 x0=0 c1=0 c0=0 length=0.001 Switch=y 
New "Line.CMT_295CF000000279" phases=3 bus1="MT435877445304315MT02.1.2.3" bus2="MT2988845ID.1.2.3" r1=0.001 r0=0.001 x1=0 x0=0 c1=0 c0=0 length=0.001 Switch=y 
New "Line.CMT_295CF005686749" phases=3 bus1="MT4390333445295245MT02.1.2.3" bus2="MT192421471ID.1.2.3" r1=0.001 r0=0.001 x1=0 x0=0 c1=0 c0=0 length=0.001 Switch=y 
New "Line.CMT_295CF005645779" phases=3 bus1="MT439225745353184MT02.1.2.3" bus2="MT132170921ID.1.2.3" r1=0.001 r0=0.001 x1=0 x0=0 c1=0 c0=0 length=0.001 Switch=y 
New "Line.CMT_295RL006361538_A" phases=3 bus1="MT4358159145313478MT02.1.2.3" bus2="MT347392658ID.1.2.3" r1=0.001 r0=0.001 x1=0 x0=0 c1=0 c0=0 length=0.001 Switch=y 
New "Line.CMT_295RL006127158_A" phases=3 bus1="MT4353471245351638MT02.1.2.3" bus2="MT306519007ID.1.2.3" r1=0.001 r0=0.001 x1=0 x0=0 c1=0 c0=0 length=0.001 Switch=y 
New "Line.CMT_295RL006127558_A" phases=3 bus1="MT435424094535442MT02.1.2.3" bus2="MT308457913ID.1.2.3" r1=0.001 r0=0.001 x1=0 x0=0 c1=0 c0=0 length=0.001 Switch=y 
New "Line.CMT_295RL006080928_A" phases=3 bus1="MT4388816645350443MT02.1.2.3" bus2="MT301713499ID.1.2.3" r1=0.001 r0=0.001 x1=0 x0=0 c1=0 c0=0 length=0.001 Switch=y 
New "Line.CMT_295RL006080918_A" phases=3 bus1="MT4374053745467362MT02.1.2.3" bus2="MT301859856ID.1.2.3" r1=0.001 r0=0.001 x1=0 x0=0 c1=0 c0=0 length=0.001 Switch=y 
New "Line.CMT_295RL005861668_A" phases=3 bus1="MT4380272145333462MT02.1.2.3" bus2="MT254469691ID.1.2.3" r1=0.001 r0=0.001 x1=0 x0=0 c1=0 c0=0 length=0.001 Switch=y 
New "Line.CMT_295RL005401188_A" phases=3 bus1="MT4357376145326348MT02.1.2.3" bus2="MT202878936ID.1.2.3" r1=0.001 r0=0.001 x1=0 x0=0 c1=0 c0=0 length=0.001 Switch=y 
New "Line.CMT_295RL005408118_A" phases=3 bus1="MT4368136645312073MT02.1.2.3" bus2="MT202878652ID.1.2.3" r1=0.001 r0=0.001 x1=0 x0=0 c1=0 c0=0 length=0.001 Switch=y 
New "Line.CMT_295RL005408098_A" phases=3 bus1="MT436798645302994MT02.1.2.3" bus2="MT202879041ID.1.2.3" r1=0.001 r0=0.001 x1=0 x0=0 c1=0 c0=0 length=0.001 Switch=y 
New "Line.CMT_295RL005774698_A" phases=3 bus1="MT4301304545545948MT02.1.2.3" bus2="MT242469958ID.1.2.3" r1=0.001 r0=0.001 x1=0 x0=0 c1=0 c0=0 length=0.001 Switch=y 
New "Line.CMT_295RL005053768_A" phases=3 bus1="MT4336233145760913MT02.1.2.3" bus2="MT258970008ID.1.2.3" r1=0.001 r0=0.001 x1=0 x0=0 c1=0 c0=0 length=0.001 Switch=y 
New "Line.CMT_295RL005053758_A" phases=3 bus1="MT4340544145665018MT02.1.2.3" bus2="MT202878880ID.1.2.3" r1=0.001 r0=0.001 x1=0 x0=0 c1=0 c0=0 length=0.001 Switch=y 
New "Line.CMT_295RT000020128_A" phases=3 bus1="MT4341339445663196MT02.1.2.3" bus2="MT202879340ID.1.2.3" r1=0.001 r0=0.001 x1=0 x0=0 c1=0 c0=0 length=0.001 Switch=y 
New "Line.CMT_295FF000210319" phases=3 bus1="MT4298671845384842MT02.1.2.3" bus2="MT2982144ID.1.2.3" r1=0.001 r0=0.001 x1=0 x0=0 c1=0 c0=0 length=0.001 Switch=y 
New "Line.CMT_295FF000003009" phases=3 bus1="MT4335552845680276MT02.1.2.3" bus2="MT2994777ID.1.2.3" r1=0.001 r0=0.001 x1=0 x0=0 c1=0 c0=0 length=0.001 Switch=y 
New "Line.CMT_295FF000210189" phases=3 bus1="MT4344062845549658MT02.1.2.3" bus2="MT2999806ID.1.2.3" r1=0.001 r0=0.001 x1=0 x0=0 c1=0 c0=0 length=0.001 Switch=y 
New "Line.CMT_295FF000210309" phases=3 bus1="MT4299246745401973MT02.1.2.3" bus2="MT2992505ID.1.2.3" r1=0.001 r0=0.001 x1=0 x0=0 c1=0 c0=0 length=0.001 Switch=y 
!New "Line.CMT_194225973" phases=3 bus1="MT194226033ID.1.2.3" bus2="MT194225973ID.1.2.3" r1=0.001 r0=0.001 x1=0 x0=0 c1=0 c0=0 length=0.001 Switch=y 
!New "Line.CMT_295CF006035019" phases=3 bus1="MT4392727445336105MT02.1.2.3" bus2="MT312482924ID.1.2.3" r1=0.001 r0=0.001 x1=0 x0=0 c1=0 c0=0 length=0.001 Switch=y 
!New "Line.CMT_295CF006035009" phases=3 bus1="MT4392925745338222MT02.1.2.3" bus2="MT312482923ID.1.2.3" r1=0.001 r0=0.001 x1=0 x0=0 c1=0 c0=0 length=0.001 Switch=y 
New "Line.CMT_295CF005742619" phases=3 bus1="MT4351036445372335MT02.1.2.3" bus2="MT191986898ID.1.2.3" r1=0.001 r0=0.001 x1=0 x0=0 c1=0 c0=0 length=0.001 Switch=y 
New "Line.CMT_295CF000000159" phases=3 bus1="MT4391562645356592MT02.1.2.3" bus2="MT2983970ID.1.2.3" r1=0.001 r0=0.001 x1=0 x0=0 c1=0 c0=0 length=0.001 Switch=y 
New "Line.CMT_295CF005139189" phases=3 bus1="MT4359075945307867MT02.1.2.3" bus2="MT2980824ID.1.2.3" r1=0.001 r0=0.001 x1=0 x0=0 c1=0 c0=0 length=0.001 Switch=y 
!New "Line.CMT_295CF000209049" phases=3 bus1="MT4363081845324392MTMT.1.2.3" bus2="MT2989522ID.1.2.3" r1=0.001 r0=0.001 x1=0 x0=0 c1=0 c0=0 length=0.001 Switch=y 
New "Line.CMT_295CF000209039" phases=3 bus1="MT4370046645329283MT02.1.2.3" bus2="MT2992854ID.1.2.3" r1=0.001 r0=0.001 x1=0 x0=0 c1=0 c0=0 length=0.001 Switch=y 
New "Line.CMT_295CF000208829" phases=3 bus1="MT4367477545307879MT02.1.2.3" bus2="MT2981609ID.1.2.3" r1=0.001 r0=0.001 x1=0 x0=0 c1=0 c0=0 length=0.001 Switch=y 
New "Line.CMT_295FF005483549" phases=3 bus1="MT4344077945513624MT02.1.2.3" bus2="MT32754633ID.1.2.3" r1=0.001 r0=0.001 x1=0 x0=0 c1=0 c0=0 length=0.001 Switch=y 
New "Line.CMT_260FF006067349" phases=3 bus1="MT4286833345256635MT02.1.2.3" bus2="MT316566242ID.1.2.3" r1=0.001 r0=0.001 x1=0 x0=0 c1=0 c0=0 length=0.001 Switch=y 
New "Line.CMT_295FF005120899" phases=3 bus1="MT433302884579704MT02.1.2.3" bus2="MT2994715ID.1.2.3" r1=0.001 r0=0.001 x1=0 x0=0 c1=0 c0=0 length=0.001 Switch=y 
New "Line.CMT_295FF005316939" phases=3 bus1="MT4363986245379908MT02.1.2.3" bus2="MT2984425ID.1.2.3" r1=0.001 r0=0.001 x1=0 x0=0 c1=0 c0=0 length=0.001 Switch=y 
New "Line.CMT_295FF000003029" phases=3 bus1="MT4316219945660563MT02.1.2.3" bus2="MT2993203ID.1.2.3" r1=0.001 r0=0.001 x1=0 x0=0 c1=0 c0=0 length=0.001 Switch=y 
New "Line.CMT_295FF000005769" phases=3 bus1="MT4300178545530092MT02.1.2.3" bus2="MT2990676ID.1.2.3" r1=0.001 r0=0.001 x1=0 x0=0 c1=0 c0=0 length=0.001 Switch=y 
New "Line.CMT_295FF000003479" phases=3 bus1="MT4370336245331238MT02.1.2.3" bus2="MT2995796ID.1.2.3" r1=0.001 r0=0.001 x1=0 x0=0 c1=0 c0=0 length=0.001 Switch=y 
New "Line.CMT_295FF005446549" phases=3 bus1="MT4342833745472969MT02.1.2.3" bus2="MT2999670ID.1.2.3" r1=0.001 r0=0.001 x1=0 x0=0 c1=0 c0=0 length=0.001 Switch=y 
New "Line.CMT_295FF005446939" phases=3 bus1="MT4344590945620175MT02.1.2.3" bus2="MT2985000ID.1.2.3" r1=0.001 r0=0.001 x1=0 x0=0 c1=0 c0=0 length=0.001 Switch=y 
New "Line.CMT_295FF005395989" phases=3 bus1="MT4376838945337154MT02.1.2.3" bus2="MT2986566ID.1.2.3" r1=0.001 r0=0.001 x1=0 x0=0 c1=0 c0=0 length=0.001 Switch=y 
New "Line.CMT_260FF005382499" phases=3 bus1="MT4273958445082245MT02.1.2.3" bus2="MT2992460ID.1.2.3" r1=0.001 r0=0.001 x1=0 x0=0 c1=0 c0=0 length=0.001 Switch=y 
New "Line.CMT_295FF005396099" phases=3 bus1="MT43744945453448MT02.1.2.3" bus2="MT52730745ID.1.2.3" r1=0.001 r0=0.001 x1=0 x0=0 c1=0 c0=0 length=0.001 Switch=y 
New "Line.CMT_300FF005200199" phases=3 bus1="MT4340642145951499MT02.1.2.3" bus2="MT2995998ID.1.2.3" r1=0.001 r0=0.001 x1=0 x0=0 c1=0 c0=0 length=0.001 Switch=y 
New "Line.CMT_260FF005678749" phases=3 bus1="MT4277058745159527MT02.1.2.3" bus2="MT191416206ID.1.2.3" r1=0.001 r0=0.001 x1=0 x0=0 c1=0 c0=0 length=0.001 Switch=y 
New "Line.CMT_295BF000000329" phases=3 bus1="MT4356916545322472MT02.1.2.3" bus2="MT2983326ID.1.2.3" r1=0.001 r0=0.001 x1=0 x0=0 c1=0 c0=0 length=0.001 Switch=y 
New "Line.CMT_295BF000003489" phases=3 bus1="MT4367802545329395MT02.1.2.3" bus2="MT2989620ID.1.2.3" r1=0.001 r0=0.001 x1=0 x0=0 c1=0 c0=0 length=0.001 Switch=y 
New "Line.CMT_295BF000000299" phases=3 bus1="MT4357676145313869MT02.1.2.3" bus2="MT2992375ID.1.2.3" r1=0.001 r0=0.001 x1=0 x0=0 c1=0 c0=0 length=0.001 Switch=y 
New "Line.CMT_295BF006431589" phases=3 bus1="MT4367088245402006MT02.1.2.3" bus2="MT332549029ID.1.2.3" r1=0.001 r0=0.001 x1=0 x0=0 c1=0 c0=0 length=0.001 Switch=y 
New "Line.CMT_295CF000000309" phases=3 bus1="MT4358784445338015MT02.1.2.3" bus2="MT2986838ID.1.2.3" r1=0.001 r0=0.001 x1=0 x0=0 c1=0 c0=0 length=0.001 Switch=y 
New "Line.CMT_295FF006673599" phases=3 bus1="MT4288845445507296MT02.1.2.3" bus2="MT346020895ID.1.2.3" r1=0.001 r0=0.001 x1=0 x0=0 c1=0 c0=0 length=0.001 Switch=y 
New "Line.CMT_295BF005079189" phases=3 bus1="MT4340989945349054MT02.1.2.3" bus2="MT2999504ID.1.2.3" r1=0.001 r0=0.001 x1=0 x0=0 c1=0 c0=0 length=0.001 Switch=y 
New "Line.CMT_295BF005033709" phases=3 bus1="MT4286687645694918MT02.1.2.3" bus2="MT2987304ID.1.2.3" r1=0.001 r0=0.001 x1=0 x0=0 c1=0 c0=0 length=0.001 Switch=y 
New "Line.CMT_260BF005113299" phases=3 bus1="MT428848945260094MT02.1.2.3" bus2="MT2989709ID.1.2.3" r1=0.001 r0=0.001 x1=0 x0=0 c1=0 c0=0 length=0.001 Switch=y 
New "Line.CMT_295BF000003619" phases=3 bus1="MT429996164553276MT02.1.2.3" bus2="MT2987176ID.1.2.3" r1=0.001 r0=0.001 x1=0 x0=0 c1=0 c0=0 length=0.001 Switch=y 
New "Line.CMT_300BF000007459" phases=3 bus1="MT4337447945902685MT02.1.2.3" bus2="MT2986205ID.1.2.3" r1=0.001 r0=0.001 x1=0 x0=0 c1=0 c0=0 length=0.001 Switch=y 
New "Line.CMT_260BF006628079" phases=1 bus1="MT4262335645824134MT02.3" bus2="MT340733389ID.3" r1=0.001 r0=0.001 x1=0 x0=0 c1=0 c0=0 length=0.001 Switch=y 
!New "Line.CMT_295RL006080919" phases=3 bus1="MT4374053745467362MT02.1.2.3" bus2="MT317494995ID.1.2.3" r1=0.001 r0=0.001 x1=0 x0=0 c1=0 c0=0 length=0.001 Switch=y 
!New "Line.CMT_295RL006080929" phases=3 bus1="MT4388816645350443MT02.1.2.3" bus2="MT317496592ID.1.2.3" r1=0.001 r0=0.001 x1=0 x0=0 c1=0 c0=0 length=0.001 Switch=y 
New "Line.CMT_295BR005645119" phases=3 bus1="MT437121145433412MT02.1.2.3" bus2="MT132097918ID.1.2.3" r1=0.001 r0=0.001 x1=0 x0=0 c1=0 c0=0 length=0.001 Switch=y 
!New "Line.CMT_295RL005408099" phases=3 bus1="MT436798645302994MT02.1.2.3" bus2="MT2996109ID.1.2.3" r1=0.001 r0=0.001 x1=0 x0=0 c1=0 c0=0 length=0.001 Switch=y 
New "Line.CMT_295RL005408119" phases=3 bus1="MT4368136645312073MT02.1.2.3" bus2="MT2986783ID.1.2.3" r1=0.001 r0=0.001 x1=0 x0=0 c1=0 c0=0 length=0.001 Switch=y 
New "Line.CMT_295RL005401189" phases=3 bus1="MT4357376145326348MT02.1.2.3" bus2="MT2993281ID.1.2.3" r1=0.001 r0=0.001 x1=0 x0=0 c1=0 c0=0 length=0.001 Switch=y 
New "Line.CMT_260BR005113289" phases=3 bus1="MT4275019545124769MT02.1.2.3" bus2="MT2983900ID.1.2.3" r1=0.001 r0=0.001 x1=0 x0=0 c1=0 c0=0 length=0.001 Switch=y 
New "Line.CMT_260BR000152119" phases=3 bus1="MT4277479145172619MT02.1.2.3" bus2="MT2989971ID.1.2.3" r1=0.001 r0=0.001 x1=0 x0=0 c1=0 c0=0 length=0.001 Switch=y 
!New "Line.CMT_295RL005645549" phases=3 bus1="MT4394336745365336MT02.1.2.3" bus2="MT132137206ID.1.2.3" r1=0.001 r0=0.001 x1=0 x0=0 c1=0 c0=0 length=0.001 Switch=y 
New "Line.CMT_295RL006127159" phases=3 bus1="MT4353471245351638MT02.1.2.3" bus2="MT318984965ID.1.2.3" r1=0.001 r0=0.001 x1=0 x0=0 c1=0 c0=0 length=0.001 Switch=y 
!New "Line.CMT_295RL006127559" phases=3 bus1="MT435424094535442MT02.1.2.3" bus2="MT318984992ID.1.2.3" r1=0.001 r0=0.001 x1=0 x0=0 c1=0 c0=0 length=0.001 Switch=y 
New "Line.CMT_295BR000008099" phases=3 bus1="MT4351282445360833MT02.1.2.3" bus2="MT2997972ID.1.2.3" r1=0.001 r0=0.001 x1=0 x0=0 c1=0 c0=0 length=0.001 Switch=y 
New "Line.CMT_295BR000007279" phases=3 bus1="MT4301551345540161MT02.1.2.3" bus2="MT2991513ID.1.2.3" r1=0.001 r0=0.001 x1=0 x0=0 c1=0 c0=0 length=0.001 Switch=y 
New "Line.CMT_295BR000007059" phases=3 bus1="MT429956645389292MT02.1.2.3" bus2="MT2995378ID.1.2.3" r1=0.001 r0=0.001 x1=0 x0=0 c1=0 c0=0 length=0.001 Switch=y 
New "Line.CMT_295BR000000349" phases=3 bus1="MT4343273745510281MT02.1.2.3" bus2="MT2981841ID.1.2.3" r1=0.001 r0=0.001 x1=0 x0=0 c1=0 c0=0 length=0.001 Switch=y 
New "Line.CMT_295BR000003609" phases=3 bus1="MT430734774558495MT02.1.2.3" bus2="MT2992333ID.1.2.3" r1=0.001 r0=0.001 x1=0 x0=0 c1=0 c0=0 length=0.001 Switch=y 
New "Line.CMT_295BF006035169" phases=3 bus1="MT4370957245439448MT02.1.2.3" bus2="MT312514230ID.1.2.3" r1=0.001 r0=0.001 x1=0 x0=0 c1=0 c0=0 length=0.001 Switch=y 
New "Line.CMT_295BF006059529" phases=3 bus1="MT4341149745373277MT02.1.2.3" bus2="MT315963539ID.1.2.3" r1=0.001 r0=0.001 x1=0 x0=0 c1=0 c0=0 length=0.001 Switch=y 
New "Line.CMT_295FF000007689" phases=3 bus1="MT435389445354025MT02.1.2.3" bus2="MT2985336ID.1.2.3" r1=0.001 r0=0.001 x1=0 x0=0 c1=0 c0=0 length=0.001 Switch=y 
New "Line.CMT_295RL005053769" phases=3 bus1="MT4336233145760913MT02.1.2.3" bus2="MT2988122ID.1.2.3" r1=0.001 r0=0.001 x1=0 x0=0 c1=0 c0=0 length=0.001 Switch=y 
New "Line.CMT_260BF005121639" phases=3 bus1="MT428912734526883MT02.1.2.3" bus2="MT2996410ID.1.2.3" r1=0.001 r0=0.001 x1=0 x0=0 c1=0 c0=0 length=0.001 Switch=y 
New "Line.CMT_295BF005231029" phases=3 bus1="MT4381534645355378MT02.1.2.3" bus2="MT2996245ID.1.2.3" r1=0.001 r0=0.001 x1=0 x0=0 c1=0 c0=0 length=0.001 Switch=y 
New "Line.CMT_300BF000003649" phases=3 bus1="MT433411445844892MT02.1.2.3" bus2="MT2995939ID.1.2.3" r1=0.001 r0=0.001 x1=0 x0=0 c1=0 c0=0 length=0.001 Switch=y 
New "Line.CMT_295BF000203459" phases=3 bus1="MT4381278145342384MT02.1.2.3" bus2="MT2987479ID.1.2.3" r1=0.001 r0=0.001 x1=0 x0=0 c1=0 c0=0 length=0.001 Switch=y 
New "Line.CMT_295BF005217829" phases=3 bus1="MT4299254345663799MT02.1.2.3" bus2="MT2992168ID.1.2.3" r1=0.001 r0=0.001 x1=0 x0=0 c1=0 c0=0 length=0.001 Switch=y 
New "Line.CMT_295BF005310649" phases=3 bus1="MT4376278645387926MT02.1.2.3" bus2="MT2990651ID.1.2.3" r1=0.001 r0=0.001 x1=0 x0=0 c1=0 c0=0 length=0.001 Switch=y 
New "Line.CMT_295BF005310639" phases=3 bus1="MT4376411645387337MT02.1.2.3" bus2="MT2991920ID.1.2.3" r1=0.001 r0=0.001 x1=0 x0=0 c1=0 c0=0 length=0.001 Switch=y 
New "Line.CMT_295BF000000339" phases=3 bus1="MT435529244534273MT02.1.2.3" bus2="MT2986965ID.1.2.3" r1=0.001 r0=0.001 x1=0 x0=0 c1=0 c0=0 length=0.001 Switch=y 
New "Line.CMT_295BF000209079" phases=3 bus1="MT4362611445365075MT02.1.2.3" bus2="MT2991021ID.1.2.3" r1=0.001 r0=0.001 x1=0 x0=0 c1=0 c0=0 length=0.001 Switch=y 
New "Line.CMT_295BF005959659" phases=3 bus1="MT4380843945371377MT02.1.2.3" bus2="MT305132929ID.1.2.3" r1=0.001 r0=0.001 x1=0 x0=0 c1=0 c0=0 length=0.001 Switch=y 
New "Line.CMT_295BF005799489" phases=3 bus1="MT4304355845668507MT02.1.2.3" bus2="MT198964596ID.1.2.3" r1=0.001 r0=0.001 x1=0 x0=0 c1=0 c0=0 length=0.001 Switch=y 
New "Line.CMT_260BF005492439" phases=3 bus1="MT4294471445269537MT02.1.2.3" bus2="MT41806384ID.1.2.3" r1=0.001 r0=0.001 x1=0 x0=0 c1=0 c0=0 length=0.001 Switch=y 
New "Line.CMT_295BF005405769" phases=3 bus1="MT4374335345330125MT02.1.2.3" bus2="MT2988184ID.1.2.3" r1=0.001 r0=0.001 x1=0 x0=0 c1=0 c0=0 length=0.001 Switch=y 
New "Line.CMT_295BF005384489" phases=3 bus1="MT4308078845455077MT02.1.2.3" bus2="MT2985699ID.1.2.3" r1=0.001 r0=0.001 x1=0 x0=0 c1=0 c0=0 length=0.001 Switch=y 
New "Line.CMT_295BF005249539" phases=3 bus1="MT4370450745328345MT02.1.2.3" bus2="MT2985751ID.1.2.3" r1=0.001 r0=0.001 x1=0 x0=0 c1=0 c0=0 length=0.001 Switch=y 
New "Line.CMT_295BF005310629" phases=3 bus1="MT4376451745386718MT02.1.2.3" bus2="MT2986040ID.1.2.3" r1=0.001 r0=0.001 x1=0 x0=0 c1=0 c0=0 length=0.001 Switch=y 
New "Line.CMT_295BF005396089" phases=3 bus1="MT4374681945455045MT02.1.2.3" bus2="MT52730738ID.1.2.3" r1=0.001 r0=0.001 x1=0 x0=0 c1=0 c0=0 length=0.001 Switch=y 
New "Line.CMT_295BF005396079" phases=3 bus1="MT437468654545497MT02.1.2.3" bus2="MT52730731ID.1.2.3" r1=0.001 r0=0.001 x1=0 x0=0 c1=0 c0=0 length=0.001 Switch=y 
New "Line.CMT_295RL005053759" phases=3 bus1="MT4340544145665018MT02.1.2.3" bus2="MT2991776ID.1.2.3" r1=0.001 r0=0.001 x1=0 x0=0 c1=0 c0=0 length=0.001 Switch=y 
New "Line.CMT_295BF005672809" phases=3 bus1="MT4360075245314556MT02.1.2.3" bus2="MT132820822ID.1.2.3" r1=0.001 r0=0.001 x1=0 x0=0 c1=0 c0=0 length=0.001 Switch=y 
New "Line.CMT_295BS000003589" phases=3 bus1="MT4316504945668789MT02.1.2.3" bus2="MT2985857ID.1.2.3" r1=0.001 r0=0.001 x1=0 x0=0 c1=0 c0=0 length=0.001 Switch=y 
New "Line.CMT_295BF005639289" phases=3 bus1="MT4350944545371018MT02.1.2.3" bus2="MT131695556ID.1.2.3" r1=0.001 r0=0.001 x1=0 x0=0 c1=0 c0=0 length=0.001 Switch=y 
!New "Line.CMT_295RL005861669" phases=3 bus1="MT4380272145333462MT02.1.2.3" bus2="MT202082996ID.1.2.3" r1=0.001 r0=0.001 x1=0 x0=0 c1=0 c0=0 length=0.001 Switch=y 
New "Line.CMT_295BC005147338_A" phases=3 bus1="MT4365972545301392MT02.1.2.3" bus2="MT199555390ID.1.2.3" r1=0.001 r0=0.001 x1=0 x0=0 c1=0 c0=0 length=0.001 Switch=y 
New "Line.CMT_295BC005147348_A" phases=3 bus1="MT439259364534294MT02.1.2.3" bus2="MT199555364ID.1.2.3" r1=0.001 r0=0.001 x1=0 x0=0 c1=0 c0=0 length=0.001 Switch=y 
New "Line.CMT_295BF005513979" phases=3 bus1="MT4298286545364687MT02.1.2.3" bus2="MT72263726ID.1.2.3" r1=0.001 r0=0.001 x1=0 x0=0 c1=0 c0=0 length=0.001 Switch=y 
New "Line.CMT_295RL005774699" phases=3 bus1="MT4301304545545948MT02.1.2.3" bus2="MT196458358ID.1.2.3" r1=0.001 r0=0.001 x1=0 x0=0 c1=0 c0=0 length=0.001 Switch=y 
New "Line.CMT_295BF005628399" phases=3 bus1="MT4282786945462572MT02.1.2.3" bus2="MT130027302ID.1.2.3" r1=0.001 r0=0.001 x1=0 x0=0 c1=0 c0=0 length=0.001 Switch=y 
New "Line.CMT_295BF005628849" phases=3 bus1="MT430741134566364MT02.1.2.3" bus2="MT130057624ID.1.2.3" r1=0.001 r0=0.001 x1=0 x0=0 c1=0 c0=0 length=0.001 Switch=y 
New "Line.CMT_260RL006376099" phases=3 bus1="MT4294639845275639MT02.1.2.3" bus2="MT329852718ID.1.2.3" r1=0.001 r0=0.001 x1=0 x0=0 c1=0 c0=0 length=0.001 Switch=y 
New "Line.CMT_295RL006361539" phases=3 bus1="MT4358159145313478MT02.1.2.3" bus2="MT330650583ID.1.2.3" r1=0.001 r0=0.001 x1=0 x0=0 c1=0 c0=0 length=0.001 Switch=y 
New "Line.CMT_295BS000000249" phases=3 bus1="MT4361860245357755MT02.1.2.3" bus2="MT2989023ID.1.2.3" r1=0.001 r0=0.001 x1=0 x0=0 c1=0 c0=0 length=0.001 Switch=y 
New "Line.CMT_295BR005024299" phases=3 bus1="MT4282739945473671MT02.1.2.3" bus2="MT2986112ID.1.2.3" r1=0.001 r0=0.001 x1=0 x0=0 c1=0 c0=0 length=0.001 Switch=y 
New "Line.CMT_295BR005295379" phases=3 bus1="MT4282614945458443MT02.1.2.3" bus2="MT2986244ID.1.2.3" r1=0.001 r0=0.001 x1=0 x0=0 c1=0 c0=0 length=0.001 Switch=y 
New "Line.CMT_295BR005433639" phases=3 bus1="MT4296332345342174MT02.1.2.3" bus2="MT2981604ID.1.2.3" r1=0.001 r0=0.001 x1=0 x0=0 c1=0 c0=0 length=0.001 Switch=y 
New "Line.CMT_295BR005108729" phases=3 bus1="MT4323324245709431MT02.1.2.3" bus2="MT2982447ID.1.2.3" r1=0.001 r0=0.001 x1=0 x0=0 c1=0 c0=0 length=0.001 Switch=y 
New "Line.CMT_300BF005033769" phases=1 bus1="MT434942334588706MT02.3" bus2="MT2987206ID.3" r1=0.001 r0=0.001 x1=0 x0=0 c1=0 c0=0 length=0.001 Switch=y 
New "Line.CMT_295BF000006889" phases=1 bus1="MT4286787445500152MT02.1" bus2="MT2997013ID.1" r1=0.001 r0=0.001 x1=0 x0=0 c1=0 c0=0 length=0.001 Switch=y 
New "Line.CMT_300BF000003669" phases=2 bus1="MT4333936845863382MT02.3.1" bus2="MT2987401ID.3.1" r1=0.001 r0=0.001 x1=0 x0=0 c1=0 c0=0 length=0.001 Switch=y 
New "Line.CMT_260BF000152129" phases=2 bus1="MT4277830645178328MT02.2.3" bus2="MT2994328ID.2.3" r1=0.001 r0=0.001 x1=0 x0=0 c1=0 c0=0 length=0.001 Switch=y 
New "Line.CMT_260BF000153289" phases=1 bus1="MT427705954514068MT02.1" bus2="MT2987099ID.1" r1=0.001 r0=0.001 x1=0 x0=0 c1=0 c0=0 length=0.001 Switch=y 
New "Line.CMT_295BF000006319" phases=1 bus1="MT4292991445506445MT02.1" bus2="MT2989682ID.1" r1=0.001 r0=0.001 x1=0 x0=0 c1=0 c0=0 length=0.001 Switch=y 
New "Line.CMT_295BF000000399" phases=2 bus1="MT42866778455020MT02.3.1" bus2="MT2992793ID.3.1" r1=0.001 r0=0.001 x1=0 x0=0 c1=0 c0=0 length=0.001 Switch=y 
New "Line.CMT_300BF000003679" phases=2 bus1="MT4338708345898712MT02.1.2" bus2="MT2982658ID.1.2" r1=0.001 r0=0.001 x1=0 x0=0 c1=0 c0=0 length=0.001 Switch=y 
New "Line.CMT_295BF005114559" phases=1 bus1="MT4297959745536647MT02.2" bus2="MT2987647ID.2" r1=0.001 r0=0.001 x1=0 x0=0 c1=0 c0=0 length=0.001 Switch=y 
New "Line.CMT_295BF005033699" phases=1 bus1="MT4318058145793819MT02.2" bus2="MT2989567ID.2" r1=0.001 r0=0.001 x1=0 x0=0 c1=0 c0=0 length=0.001 Switch=y 
New "Line.CMT_260BF005184229" phases=1 bus1="MT4256320645740916MT02.3" bus2="MT2985746ID.3" r1=0.001 r0=0.001 x1=0 x0=0 c1=0 c0=0 length=0.001 Switch=y 
New "Line.CMT_260BF006157079" phases=1 bus1="MT4255274245790641MT02.3" bus2="MT320954786ID.3" r1=0.001 r0=0.001 x1=0 x0=0 c1=0 c0=0 length=0.001 Switch=y 
New "Line.CMT_300BF006214309" phases=1 bus1="MT4353962245833908MT02.3" bus2="MT323919793ID.3" r1=0.001 r0=0.001 x1=0 x0=0 c1=0 c0=0 length=0.001 Switch=y 
New "Line.CMT_295BF005149439" phases=1 bus1="MT4310917645518498MT02.2" bus2="MT2983854ID.2" r1=0.001 r0=0.001 x1=0 x0=0 c1=0 c0=0 length=0.001 Switch=y 
New "Line.CMT_260BF005201229" phases=1 bus1="MT4258814345743522MT02.3" bus2="MT2989407ID.3" r1=0.001 r0=0.001 x1=0 x0=0 c1=0 c0=0 length=0.001 Switch=y 
New "Line.CMT_260BF000209179" phases=1 bus1="MT4262072445866007MT02.3" bus2="MT2991012ID.3" r1=0.001 r0=0.001 x1=0 x0=0 c1=0 c0=0 length=0.001 Switch=y 
New "Line.CMT_295BF005132349" phases=1 bus1="MT4291370745506222MT02.2" bus2="MT2988935ID.2" r1=0.001 r0=0.001 x1=0 x0=0 c1=0 c0=0 length=0.001 Switch=y 
New "Line.CMT_295BF005163409" phases=1 bus1="MT4312848645675794MT02.2" bus2="MT2987226ID.2" r1=0.001 r0=0.001 x1=0 x0=0 c1=0 c0=0 length=0.001 Switch=y 
New "Line.CMT_295BF000003599" phases=1 bus1="MT4276281145838466MT02.3" bus2="MT2999613ID.3" r1=0.001 r0=0.001 x1=0 x0=0 c1=0 c0=0 length=0.001 Switch=y 
New "Line.CMT_295BF005088189" phases=1 bus1="MT4294374845699009MT02.2" bus2="MT2982689ID.2" r1=0.001 r0=0.001 x1=0 x0=0 c1=0 c0=0 length=0.001 Switch=y 
New "Line.CMT_295BF005117929" phases=1 bus1="MT4276805845803362MT02.3" bus2="MT2983516ID.3" r1=0.001 r0=0.001 x1=0 x0=0 c1=0 c0=0 length=0.001 Switch=y 
New "Line.CMT_295BF005307239" phases=1 bus1="MT4338121145671432MT02.2" bus2="MT2982826ID.2" r1=0.001 r0=0.001 x1=0 x0=0 c1=0 c0=0 length=0.001 Switch=y 
New "Line.CMT_295BF005291649" phases=1 bus1="MT430282694592047MT02.2" bus2="MT2996227ID.2" r1=0.001 r0=0.001 x1=0 x0=0 c1=0 c0=0 length=0.001 Switch=y 
New "Line.CMT_295BF005291639" phases=1 bus1="MT4302103245917912MT02.2" bus2="MT2994332ID.2" r1=0.001 r0=0.001 x1=0 x0=0 c1=0 c0=0 length=0.001 Switch=y 
New "Line.CMT_295BF005299149" phases=1 bus1="MT439198764536319MT02.1" bus2="MT2988283ID.1" r1=0.001 r0=0.001 x1=0 x0=0 c1=0 c0=0 length=0.001 Switch=y 
New "Line.CMT_260BF005311329" phases=1 bus1="MT4250523845935385MT02.3" bus2="MT2985441ID.3" r1=0.001 r0=0.001 x1=0 x0=0 c1=0 c0=0 length=0.001 Switch=y 
New "Line.CMT_260BF000209189" phases=1 bus1="MT4261517745875322MT02.3" bus2="MT2998051ID.3" r1=0.001 r0=0.001 x1=0 x0=0 c1=0 c0=0 length=0.001 Switch=y 
New "Line.CMT_295BF000210089" phases=1 bus1="MT4352898745351904MT02.2" bus2="MT2984379ID.2" r1=0.001 r0=0.001 x1=0 x0=0 c1=0 c0=0 length=0.001 Switch=y 
New "Line.CMT_295BF005412539" phases=1 bus1="MT4299798445520165MT02.1" bus2="MT2993225ID.1" r1=0.001 r0=0.001 x1=0 x0=0 c1=0 c0=0 length=0.001 Switch=y 
New "Line.CMT_260BF005492879" phases=1 bus1="MT4274404545065596MT02.2" bus2="MT42059730ID.2" r1=0.001 r0=0.001 x1=0 x0=0 c1=0 c0=0 length=0.001 Switch=y 
New "Line.CMT_300BR000007339" phases=1 bus1="MT4342186245970538MT02.3" bus2="MT2993980ID.3" r1=0.001 r0=0.001 x1=0 x0=0 c1=0 c0=0 length=0.001 Switch=y 
New "Line.CMT_295BR005033729" phases=1 bus1="MT428392145793346MT02.3" bus2="MT2983082ID.3" r1=0.001 r0=0.001 x1=0 x0=0 c1=0 c0=0 length=0.001 Switch=y 
New "Line.CMT_295BR005878459" phases=1 bus1="MT4296162945292945MT02.2" bus2="MT204076194ID.2" r1=0.001 r0=0.001 x1=0 x0=0 c1=0 c0=0 length=0.001 Switch=y 
New "Line.CMT_295BR000000409" phases=2 bus1="MT4299224645484554MT02.1.2" bus2="MT2987209ID.1.2" r1=0.001 r0=0.001 x1=0 x0=0 c1=0 c0=0 length=0.001 Switch=y 
New "Line.CMT_295BR000003019" phases=2 bus1="MT4324867945715319MT02.1.2" bus2="MT2999410ID.1.2" r1=0.001 r0=0.001 x1=0 x0=0 c1=0 c0=0 length=0.001 Switch=y 
New "Line.CMT_295BR000007209" phases=1 bus1="MT428384944578948MT02.3" bus2="MT2982905ID.3" r1=0.001 r0=0.001 x1=0 x0=0 c1=0 c0=0 length=0.001 Switch=y 
!New "Line.CMT_295BF005139959" phases=1 bus1="MT4288562845702127MTMT.3" bus2="MT2988821ID.3" r1=0.001 r0=0.001 x1=0 x0=0 c1=0 c0=0 length=0.001 Switch=y 
!New "Line.CMT_295BF005310659" phases=3 bus1="MT4376203145387816MTMT.1.2.3.4" bus2="MT2994784ID.1.2.3.4" r1=0.001 r0=0.001 x1=0 x0=0 c1=0 c0=0 length=0.001 Switch=y 
!New "Line.CMT_295BF005405809" phases=3 bus1="MT4372591845298846MTMT.1.2.3.4" bus2="MT2991564ID.1.2.3.4" r1=0.001 r0=0.001 x1=0 x0=0 c1=0 c0=0 length=0.001 Switch=y 
!New "Line.CMT_260FF000152939" phases=1 bus1="MT4286289545256559MTMT.2.4" bus2="MT2987622ID.2.4" r1=0.001 r0=0.001 x1=0 x0=0 c1=0 c0=0 length=0.001 Switch=y 
!New "Line.CMT_295FF005518399" phases=3 bus1="MT4364452345325476MTMT.1.2.3.4" bus2="MT82139967ID.1.2.3.4" r1=0.001 r0=0.001 x1=0 x0=0 c1=0 c0=0 length=0.001 Switch=y 
!New "Line.CMT_295FF005396109" phases=3 bus1="MT4374496645453352MTMT.1.2.3.4" bus2="MT52730752ID.1.2.3.4" r1=0.001 r0=0.001 x1=0 x0=0 c1=0 c0=0 length=0.001 Switch=y 
!New "Line.CMT_295CF005639299" phases=3 bus1="MT4376510645399611MTMT.1.2.3.4" bus2="MT131711507ID.1.2.3.4" r1=0.001 r0=0.001 x1=0 x0=0 c1=0 c0=0 length=0.001 Switch=y 
New "Line.CMT_260RL005967129" phases=1 bus1="MT4286256145256335MT02.2" bus2="MT305845957ID.2" r1=0.001 r0=0.001 x1=0 x0=0 c1=0 c0=0 length=0.001 Switch=y 
New "Line.CMT_295RL006245969" phases=1 bus1="MT4288520945702025MT02.3" bus2="MT325476072ID.3" r1=0.001 r0=0.001 x1=0 x0=0 c1=0 c0=0 length=0.001 Switch=y 
