cenarios/RMTQ1302_TSEA/DU_7_TrafosMT_391_MTQ_RMTQ1302.dss
! DU_7_TrafosMT_391_MTQ_RMTQ1302
New "Transformer.TRF_190ET000150259A" phases=1 windings=3 buses=["MT4251343745950362MT02.3.0" "BT425135345950327MT02.1.4" "BT425135345950327MT02.4.2"] conns=[Wye Wye Wye] kvs=[7.967 0.12 0.12] taps=[1 1.0 1.0] kvas=[15.0 15.0 15.0] %loadloss=2.033333 %noloadloss=0.433333
New "Reactor.TRF_190ET000150259A_R" phases=1 bus1=BT425135345950327MT02.4 R=15 X=0 basefreq=60
New "Transformer.TRF_190ET000150269A" phases=1 windings=3 buses=["MT425210224601772MT02.3.0" "BT4252092346017706MT02.1.4" "BT4252092346017706MT02.4.2"] conns=[Wye Wye Wye] kvs=[7.967 0.12 0.12] taps=[1 1.0 1.0] kvas=[15.0 15.0 15.0] %loadloss=2.033333 %noloadloss=0.433333
New "Reactor.TRF_190ET000150269A_R" phases=1 bus1=BT4252092346017706MT02.4 R=15 X=0 basefreq=60
New "Transformer.TRF_260ET000303719A" phases=1 windings=3 buses=["MT4273956945070174MT02.1.0" "BT4273951245070256MT02.1.4" "BT4273951245070256MT02.4.2"] conns=[Wye Wye Wye] kvs=[7.967 0.12 0.12] taps=[1 1.0 1.0] kvas=[25.0 25.0 25.0] %loadloss=1.560000 %noloadloss=0.360000
New "Reactor.TRF_260ET000303719A_R" phases=1 bus1=BT4273951245070256MT02.4 R=15 X=0 basefreq=60
New "Transformer.TRF_260ET000303729A" phases=1 windings=3 buses=["MT4278614645153851MT02.1.0" "BT4278607945153927MT02.1.4" "BT4278607945153927MT02.4.2"] conns=[Wye Wye Wye] kvs=[7.967 0.12 0.12] taps=[1 1.0 1.0] kvas=[25.0 25.0 25.0] %loadloss=1.720000 %noloadloss=0.360000
New "Reactor.TRF_260ET000303729A_R" phases=1 bus1=BT4278607945153927MT02.4 R=15 X=0 basefreq=60
New "Transformer.TRF_260ET000303739A" phases=3 windings=2 buses=["MT4276720445146024MT02.1.2.3" "BT4276710745146048MT02.1.2.3.4"] conns=[Delta Wye] kvs=[13.8 0.22] taps=[1 1.0] kvas=[45.0 45.0] %loadloss=3.577778 %noloadloss=0.866667
New "Reactor.TRF_260ET000303739A_R" phases=1 bus1=BT4276710745146048MT02.4 R=15 X=0 basefreq=60
New "Transformer.TRF_260ET000303749A" phases=1 windings=3 buses=["MT427785474516731MT02.1.0" "BT4277848945167392MT02.1.4" "BT4277848945167392MT02.4.2"] conns=[Wye Wye Wye] kvs=[7.967 0.12 0.12] taps=[1 1.0 1.0] kvas=[15.0 15.0 15.0] %loadloss=1.933333 %noloadloss=0.433333
New "Reactor.TRF_260ET000303749A_R" phases=1 bus1=BT4277848945167392MT02.4 R=15 X=0 basefreq=60
New "Transformer.TRF_260ET000303759A" phases=1 windings=3 buses=["MT42710045185579MT02.2.0" "BT4271003345185702MT02.1.4" "BT4271003345185702MT02.4.2"] conns=[Wye Wye Wye] kvs=[7.967 0.12 0.12] taps=[1 1.0 1.0] kvas=[25.0 25.0 25.0] %loadloss=1.800000 %noloadloss=0.360000
New "Reactor.TRF_260ET000303759A_R" phases=1 bus1=BT4271003345185702MT02.4 R=15 X=0 basefreq=60
New "Transformer.TRF_260ET000303769A" phases=3 windings=2 buses=["MT4273327145200344MT02.1.2.3" "BT427331974520041MT02.1.2.3.4"] conns=[Delta Wye] kvs=[13.8 0.22] taps=[1 1.0] kvas=[30.0 30.0] %loadloss=2.066667 %noloadloss=0.500000
New "Reactor.TRF_260ET000303769A_R" phases=1 bus1=BT427331974520041MT02.4 R=15 X=0 basefreq=60
new transformer.TRF_MRT_260ET000303779A phases=1 windings=3 buses=["MT4276992945192957MT02.3.0" "BT427698364519292MT02.1.4" "BT427698364519292MT02.4.2"] conns=[Wye Wye Wye] kvs=(7.967 0.12 0.12) kvas=(15.0 15.0 15.0) %loadloss=1.983333 %noloadloss=0.433333
New "Reactor.TRF_260ET000303779A_R" phases=1 bus1=BT427698364519292MT02.4 R=15 X=0 basefreq=60 
New "Transformer.TRF_260ET000303779B" phases=1 windings=2 buses=["MT4276992945192957MT02.2.0" "BT427698364519292MT02.2.3"] conns=[Wye Delta] kvs=[7.967 0.24] taps=[1 1.0] kvas=[15.0 15.0] %loadloss=1.983333 %noloadloss=0.433333
New "Transformer.TRF_260ET000303789A" phases=3 windings=2 buses=["MT4285055745241484MT02.1.2.3" "BT4285053145241559MT02.1.2.3.4"] conns=[Delta Wye] kvs=[13.8 0.22] taps=[1 1.0] kvas=[30.0 30.0] %loadloss=2.066667 %noloadloss=0.500000
New "Reactor.TRF_260ET000303789A_R" phases=1 bus1=BT4285053145241559MT02.4 R=15 X=0 basefreq=60
New "Transformer.TRF_260ET000303799A" phases=3 windings=2 buses=["MT4288173645265197MT02.1.2.3" "BT4288170945265261MT02.1.2.3.4"] conns=[Delta Wye] kvs=[13.8 0.22] taps=[1 1.0] kvas=[30.0 30.0] %loadloss=1.966667 %noloadloss=0.500000
New "Reactor.TRF_260ET000303799A_R" phases=1 bus1=BT4288170945265261MT02.4 R=15 X=0 basefreq=60
New "Transformer.TRF_260ET000303809A" phases=3 windings=2 buses=["MT428979744526902MT02.1.2.3" "BT4289800945268933MT02.1.2.3.4"] conns=[Delta Wye] kvs=[13.8 0.22] taps=[1 1.0] kvas=[30.0 30.0] %loadloss=2.066667 %noloadloss=0.500000
New "Reactor.TRF_260ET000303809A_R" phases=1 bus1=BT4289800945268933MT02.4 R=15 X=0 basefreq=60
New "Transformer.TRF_260ET000303819A" phases=1 windings=3 buses=["MT4290990245271355MT02.3.0" "BT42909945271442MT02.1.4" "BT42909945271442MT02.4.2"] conns=[Wye Wye Wye] kvs=[7.967 0.12 0.12] taps=[1 1.0 1.0] kvas=[15.0 15.0 15.0] %loadloss=1.933333 %noloadloss=0.433333
New "Reactor.TRF_260ET000303819A_R" phases=1 bus1=BT42909945271442MT02.4 R=15 X=0 basefreq=60
New "Transformer.TRF_260ET000303829A" phases=3 windings=2 buses=["MT429266145272073MT02.1.2.3" "BT4292672945271785MT02.1.2.3.4"] conns=[Delta Wye] kvs=[13.8 0.22] taps=[1 1.0] kvas=[30.0 30.0] %loadloss=2.066667 %noloadloss=0.500000
New "Reactor.TRF_260ET000303829A_R" phases=1 bus1=BT4292672945271785MT02.4 R=15 X=0 basefreq=60
New "Transformer.TRF_260ET000303839A" phases=1 windings=3 buses=["MT429386324527288MT02.2.0" "BT4293856445273013MT02.1.4" "BT4293856445273013MT02.4.2"] conns=[Wye Wye Wye] kvs=[7.967 0.12 0.12] taps=[1 1.0 1.0] kvas=[15.0 15.0 15.0] %loadloss=2.033333 %noloadloss=0.433333
New "Reactor.TRF_260ET000303839A_R" phases=1 bus1=BT4293856445273013MT02.4 R=15 X=0 basefreq=60
New "Transformer.TRF_260ET000303849A" phases=3 windings=2 buses=["MT4295437745257276MT02.1.2.3" "BT4295442945257362MT02.1.2.3.4"] conns=[Delta Wye] kvs=[13.8 0.22] taps=[1 1.0] kvas=[30.0 30.0] %loadloss=2.066667 %noloadloss=0.500000
New "Reactor.TRF_260ET000303849A_R" phases=1 bus1=BT4295442945257362MT02.4 R=15 X=0 basefreq=60
New "Transformer.TRF_260ET000303859A" phases=3 windings=2 buses=["MT428113284542208MT02.1.2.3" "BT4281126745422159MT02.1.2.3.4"] conns=[Delta Wye] kvs=[13.8 0.22] taps=[1 1.0] kvas=[75.0 75.0] %loadloss=1.500000 %noloadloss=0.360000
New "Reactor.TRF_260ET000303859A_R" phases=1 bus1=BT4281126745422159MT02.4 R=15 X=0 basefreq=60
New "Transformer.TRF_260ET000315239A" phases=1 windings=3 buses=["MT4285401445268836MT02.2.0" "BT4285410445268881MT02.1.4" "BT4285410445268881MT02.4.2"] conns=[Wye Wye Wye] kvs=[7.967 0.12 0.12] taps=[1 1.0 1.0] kvas=[10.0 10.0 10.0] %loadloss=2.200000 %noloadloss=0.500000
New "Reactor.TRF_260ET000315239A_R" phases=1 bus1=BT4285410445268881MT02.4 R=15 X=0 basefreq=60
New "Transformer.TRF_260ET000315249A" phases=1 windings=3 buses=["MT4285784345319457MT02.2.0" "BT42857933453195MT02.1.4" "BT42857933453195MT02.4.2"] conns=[Wye Wye Wye] kvs=[7.967 0.12 0.12] taps=[1 1.0 1.0] kvas=[15.0 15.0 15.0] %loadloss=1.933333 %noloadloss=0.433333
New "Reactor.TRF_260ET000315249A_R" phases=1 bus1=BT42857933453195MT02.4 R=15 X=0 basefreq=60
New "Transformer.TRF_260ET000315259A" phases=1 windings=3 buses=["MT4284272445336593MT02.2.0" "BT4284276645336624MT02.1.4" "BT4284276645336624MT02.4.2"] conns=[Wye Wye Wye] kvs=[7.967 0.12 0.12] taps=[1 1.0 1.0] kvas=[25.0 25.0 25.0] %loadloss=1.720000 %noloadloss=0.360000
New "Reactor.TRF_260ET000315259A_R" phases=1 bus1=BT4284276645336624MT02.4 R=15 X=0 basefreq=60
New "Transformer.TRF_260ET000317169A" phases=3 windings=2 buses=["MT4274380145141293MT02.1.2.3" "BT4274370145141516MT02.1.2.3.4"] conns=[Delta Wye] kvs=[13.8 0.22] taps=[1 1.0] kvas=[112.5 112.5] %loadloss=1.493333 %noloadloss=0.346667
New "Reactor.TRF_260ET000317169A_R" phases=1 bus1=BT4274370145141516MT02.4 R=15 X=0 basefreq=60
New "Transformer.TRF_260ET000317179A" phases=3 windings=2 buses=["MT427568314515279MT02.1.2.3" "BT427567745152869MT02.1.2.3.4"] conns=[Delta Wye] kvs=[13.8 0.22] taps=[1 1.0] kvas=[75.0 75.0] %loadloss=1.553333 %noloadloss=0.306667
New "Reactor.TRF_260ET000317179A_R" phases=1 bus1=BT427567745152869MT02.4 R=15 X=0 basefreq=60
New "Transformer.TRF_260ET000317399A" phases=3 windings=2 buses=["MT4273079945145229MT02.1.2.3" "BT4273073245145154MT02.1.2.3.4"] conns=[Delta Wye] kvs=[13.8 0.22] taps=[1 1.0] kvas=[30.0 30.0] %loadloss=1.966667 %noloadloss=0.500000
New "Reactor.TRF_260ET000317399A_R" phases=1 bus1=BT4273073245145154MT02.4 R=15 X=0 basefreq=60
New "Transformer.TRF_260ET000317549A" phases=3 windings=2 buses=["MT4275833345535666MT02.1.2.3" "BT4275842945535637MT02.1.2.3.4"] conns=[Delta Wye] kvs=[13.8 0.22] taps=[1 1.0] kvas=[45.0 45.0] %loadloss=3.577778 %noloadloss=0.866667
New "Reactor.TRF_260ET000317549A_R" phases=1 bus1=BT4275842945535637MT02.4 R=15 X=0 basefreq=60
New "Transformer.TRF_260ET000317769A" phases=3 windings=2 buses=["MT4279691245478598MT02.1.2.3" "BT4279681345478589MT02.1.2.3.4"] conns=[Delta Wye] kvs=[13.8 0.22] taps=[1 1.0] kvas=[30.0 30.0] %loadloss=2.066667 %noloadloss=0.500000
New "Reactor.TRF_260ET000317769A_R" phases=1 bus1=BT4279681345478589MT02.4 R=15 X=0 basefreq=60
New "Transformer.TRF_260ET000318189A" phases=3 windings=2 buses=["MT429444345226711MT02.1.2.3" "BT4294456145226333MT02.1.2.3.4"] conns=[Delta Wye] kvs=[13.8 0.22] taps=[1 1.0] kvas=[30.0 30.0] %loadloss=1.966667 %noloadloss=0.500000
New "Reactor.TRF_260ET000318189A_R" phases=1 bus1=BT4294456145226333MT02.4 R=15 X=0 basefreq=60
New "Transformer.TRF_260ET000318289A" phases=3 windings=2 buses=["MT4280393345193285MT02.1.2.3" "BT4280402145193247MT02.1.2.3.4"] conns=[Delta Wye] kvs=[13.8 0.22] taps=[1 1.0] kvas=[15.0 15.0] %loadloss=2.366667 %noloadloss=0.566667
New "Reactor.TRF_260ET000318289A_R" phases=1 bus1=BT4280402145193247MT02.4 R=15 X=0 basefreq=60
New "Transformer.TRF_260ET000319069A" phases=3 windings=2 buses=["MT4276494245176092MT02.1.2.3" "BT4276499645176176MT02.1.2.3.4"] conns=[Delta Wye] kvs=[13.8 0.22] taps=[1 1.0] kvas=[15.0 15.0] %loadloss=2.366667 %noloadloss=0.566667
New "Reactor.TRF_260ET000319069A_R" phases=1 bus1=BT4276499645176176MT02.4 R=15 X=0 basefreq=60
New "Transformer.TRF_260ET000319709A" phases=3 windings=2 buses=["MT4291291545235698MT02.1.2.3" "BT4291263545235602MT02.1.2.3.4"] conns=[Delta Wye] kvs=[13.8 0.22] taps=[1 1.0] kvas=[45.0 45.0] %loadloss=3.577778 %noloadloss=0.866667
New "Reactor.TRF_260ET000319709A_R" phases=1 bus1=BT4291263545235602MT02.4 R=15 X=0 basefreq=60
New "Transformer.TRF_260ET000403229A" phases=1 windings=3 buses=["MT4262380745861855MT02.3.0" "BT4262388845861796MT02.1.4" "BT4262388845861796MT02.4.2"] conns=[Wye Wye Wye] kvs=[7.967 0.12 0.12] taps=[1 1.0 1.0] kvas=[10.0 10.0 10.0] %loadloss=2.100000 %noloadloss=0.500000
New "Reactor.TRF_260ET000403229A_R" phases=1 bus1=BT4262388845861796MT02.4 R=15 X=0 basefreq=60
New "Transformer.TRF_260ET000403419A" phases=1 windings=3 buses=["MT4279848345493201MT02.2.0" "BT4279845845493109MT02.1.4" "BT4279845845493109MT02.4.2"] conns=[Wye Wye Wye] kvs=[7.967 0.12 0.12] taps=[1 1.0 1.0] kvas=[5.0 5.0 5.0] %loadloss=2.100000 %noloadloss=0.700000
New "Reactor.TRF_260ET000403419A_R" phases=1 bus1=BT4279845845493109MT02.4 R=15 X=0 basefreq=60
New "Transformer.TRF_260ET000427089A" phases=1 windings=3 buses=["MT4256301745759445MT02.3.0" "BT425629245759418MT02.1.4" "BT425629245759418MT02.4.2"] conns=[Wye Wye Wye] kvs=[7.967 0.12 0.12] taps=[1 1.0 1.0] kvas=[10.0 10.0 10.0] %loadloss=2.200000 %noloadloss=0.500000
New "Reactor.TRF_260ET000427089A_R" phases=1 bus1=BT425629245759418MT02.4 R=15 X=0 basefreq=60
New "Transformer.TRF_260ET000427099A" phases=1 windings=3 buses=["MT424756364582354MT02.3.0" "BT4247554845823588MT02.1.4" "BT4247554845823588MT02.4.2"] conns=[Wye Wye Wye] kvs=[7.967 0.12 0.12] taps=[1 1.0 1.0] kvas=[15.0 15.0 15.0] %loadloss=2.033333 %noloadloss=0.433333
New "Reactor.TRF_260ET000427099A_R" phases=1 bus1=BT4247554845823588MT02.4 R=15 X=0 basefreq=60
New "Transformer.TRF_260ET000427109A" phases=1 windings=3 buses=["MT4258915645737542MT02.3.0" "BT425890945737467MT02.1.4" "BT425890945737467MT02.4.2"] conns=[Wye Wye Wye] kvs=[7.967 0.12 0.12] taps=[1 1.0 1.0] kvas=[15.0 15.0 15.0] %loadloss=2.033333 %noloadloss=0.433333
New "Reactor.TRF_260ET000427109A_R" phases=1 bus1=BT425890945737467MT02.4 R=15 X=0 basefreq=60
New "Transformer.TRF_260ET000427129A" phases=1 windings=3 buses=["MT4258306445902635MT02.3.0" "BT4258299445902563MT02.1.4" "BT4258299445902563MT02.4.2"] conns=[Wye Wye Wye] kvs=[7.967 0.12 0.12] taps=[1 1.0 1.0] kvas=[15.0 15.0 15.0] %loadloss=1.933333 %noloadloss=0.433333
New "Reactor.TRF_260ET000427129A_R" phases=1 bus1=BT4258299445902563MT02.4 R=15 X=0 basefreq=60
New "Transformer.TRF_260ET005052019A" phases=1 windings=3 buses=["MT425231564591608MT02.3.0" "BT425231945915986MT02.1.4" "BT425231945915986MT02.4.2"] conns=[Wye Wye Wye] kvs=[7.967 0.12 0.12] taps=[1 1.0 1.0] kvas=[10.0 10.0 10.0] %loadloss=2.100000 %noloadloss=0.500000
New "Reactor.TRF_260ET005052019A_R" phases=1 bus1=BT425231945915986MT02.4 R=15 X=0 basefreq=60
New "Transformer.TRF_260ET005076129A" phases=3 windings=2 buses=["MT427476245110038MT02.1.2.3" "BT4274769945110026MT02.1.2.3.4"] conns=[Delta Wye] kvs=[13.8 0.22] taps=[1 1.0] kvas=[15.0 15.0] %loadloss=2.233333 %noloadloss=0.500000
New "Reactor.TRF_260ET005076129A_R" phases=1 bus1=BT4274769945110026MT02.4 R=15 X=0 basefreq=60
New "Transformer.TRF_260ET005076819A" phases=1 windings=3 buses=["MT4252124145807554MT02.3.0" "BT4252128845807613MT02.1.4" "BT4252128845807613MT02.4.2"] conns=[Wye Wye Wye] kvs=[7.967 0.12 0.12] taps=[1 1.0 1.0] kvas=[15.0 15.0 15.0] %loadloss=1.933333 %noloadloss=0.433333
New "Reactor.TRF_260ET005076819A_R" phases=1 bus1=BT4252128845807613MT02.4 R=15 X=0 basefreq=60
New "Transformer.TRF_260ET005088679A" phases=1 windings=3 buses=["MT4282408245233207MT02.2.0" "BT4282414845233413MT02.1.4" "BT4282414845233413MT02.4.2"] conns=[Wye Wye Wye] kvs=[7.967 0.12 0.12] taps=[1 1.0 1.0] kvas=[10.0 10.0 10.0] %loadloss=2.100000 %noloadloss=0.500000
New "Reactor.TRF_260ET005088679A_R" phases=1 bus1=BT4282414845233413MT02.4 R=15 X=0 basefreq=60
New "Transformer.TRF_260ET005097359A" phases=1 windings=3 buses=["MT4274480745040527MT02.2.0" "BT4274489845040486MT02.1.4" "BT4274489845040486MT02.4.2"] conns=[Wye Wye Wye] kvs=[7.967 0.12 0.12] taps=[1 1.0 1.0] kvas=[10.0 10.0 10.0] %loadloss=2.000000 %noloadloss=0.450000
New "Reactor.TRF_260ET005097359A_R" phases=1 bus1=BT4274489845040486MT02.4 R=15 X=0 basefreq=60
New "Transformer.TRF_260ET005121619A" phases=1 windings=3 buses=["MT4288328245289954MT02.3.0" "BT428832145289893MT02.1.4" "BT428832145289893MT02.4.2"] conns=[Wye Wye Wye] kvs=[7.967 0.12 0.12] taps=[1 1.0 1.0] kvas=[15.0 15.0 15.0] %loadloss=1.933333 %noloadloss=0.433333
New "Reactor.TRF_260ET005121619A_R" phases=1 bus1=BT428832145289893MT02.4 R=15 X=0 basefreq=60
New "Transformer.TRF_260ET005303249A" phases=1 windings=3 buses=["MT4283830845235651MT02.2.0" "BT42838034523583MT02.1.4" "BT42838034523583MT02.4.2"] conns=[Wye Wye Wye] kvs=[7.967 0.12 0.12] taps=[1 1.0 1.0] kvas=[10.0 10.0 10.0] %loadloss=2.100000 %noloadloss=0.500000
New "Reactor.TRF_260ET005303249A_R" phases=1 bus1=BT42838034523583MT02.4 R=15 X=0 basefreq=60
New "Transformer.TRF_260ET005304339A" phases=1 windings=3 buses=["MT4261600545874643MT02.3.0" "BT4261593245874529MT02.1.4" "BT4261593245874529MT02.4.2"] conns=[Wye Wye Wye] kvs=[7.967 0.12 0.12] taps=[1 1.0 1.0] kvas=[10.0 10.0 10.0] %loadloss=2.100000 %noloadloss=0.500000
New "Reactor.TRF_260ET005304339A_R" phases=1 bus1=BT4261593245874529MT02.4 R=15 X=0 basefreq=60
New "Transformer.TRF_260ET005310129A" phases=1 windings=3 buses=["MT4259977245807222MT02.3.0" "BT4259969245807283MT02.1.4" "BT4259969245807283MT02.4.2"] conns=[Wye Wye Wye] kvs=[7.967 0.12 0.12] taps=[1 1.0 1.0] kvas=[10.0 10.0 10.0] %loadloss=2.100000 %noloadloss=0.500000
New "Reactor.TRF_260ET005310129A_R" phases=1 bus1=BT4259969245807283MT02.4 R=15 X=0 basefreq=60
New "Transformer.TRF_260ET005318869A" phases=1 windings=3 buses=["MT4255805545770133MT02.3.0" "BT425579724576996MT02.1.4" "BT425579724576996MT02.4.2"] conns=[Wye Wye Wye] kvs=[7.967 0.12 0.12] taps=[1 1.0 1.0] kvas=[10.0 10.0 10.0] %loadloss=2.200000 %noloadloss=0.500000
New "Reactor.TRF_260ET005318869A_R" phases=1 bus1=BT425579724576996MT02.4 R=15 X=0 basefreq=60
New "Transformer.TRF_260ET005374479A" phases=1 windings=3 buses=["MT4281968545371185MT02.2.0" "BT428195445371205MT02.1.4" "BT428195445371205MT02.4.2"] conns=[Wye Wye Wye] kvs=[7.967 0.12 0.12] taps=[1 1.0 1.0] kvas=[10.0 10.0 10.0] %loadloss=1.950000 %noloadloss=0.500000
New "Reactor.TRF_260ET005374479A_R" phases=1 bus1=BT428195445371205MT02.4 R=15 X=0 basefreq=60
New "Transformer.TRF_260ET005430419A" phases=3 windings=2 buses=["MT4272279945181959MT02.1.2.3" "BT4272277645181807MT02.1.2.3.4"] conns=[Delta Wye] kvs=[13.8 0.22] taps=[1 1.0] kvas=[15.0 15.0] %loadloss=2.366667 %noloadloss=0.566667
New "Reactor.TRF_260ET005430419A_R" phases=1 bus1=BT4272277645181807MT02.4 R=15 X=0 basefreq=60
New "Transformer.TRF_260ET005448279A" phases=3 windings=2 buses=["MT4288951345275836MT02.1.2.3" "BT4288919645275956MT02.1.2.3.4"] conns=[Delta Wye] kvs=[13.8 0.22] taps=[1 1.045454] kvas=[15.0 15.0] %loadloss=2.233333 %noloadloss=0.500000
New "Reactor.TRF_260ET005448279A_R" phases=1 bus1=BT4288919645275956MT02.4 R=15 X=0 basefreq=60
New "Transformer.TRF_260ET005645189A" phases=1 windings=3 buses=["MT4283060145362119MT02.2.0" "BT4283049845361955MT02.1.4" "BT4283049845361955MT02.4.2"] conns=[Wye Wye Wye] kvs=[7.967 0.12 0.12] taps=[1 1.0 1.0] kvas=[25.0 25.0 25.0] %loadloss=1.560000 %noloadloss=0.360000
New "Reactor.TRF_260ET005645189A_R" phases=1 bus1=BT4283049845361955MT02.4 R=15 X=0 basefreq=60
New "Transformer.TRF_260ET005856189A" phases=1 windings=3 buses=["MT4285540945286293MT02.2.0" "BT42855394528641MT02.1.4" "BT42855394528641MT02.4.2"] conns=[Wye Wye Wye] kvs=[7.967 0.12 0.12] taps=[1 1.0 1.0] kvas=[25.0 25.0 25.0] %loadloss=1.600000 %noloadloss=0.320000
New "Reactor.TRF_260ET005856189A_R" phases=1 bus1=BT42855394528641MT02.4 R=15 X=0 basefreq=60
New "Transformer.TRF_260ET005884969A" phases=3 windings=2 buses=["MT4288753945285957MT02.1.2.3" "BT4288727245286056MT02.1.2.3.4"] conns=[Delta Wye] kvs=[13.8 0.22] taps=[1 1.0] kvas=[45.0 45.0] %loadloss=1.722222 %noloadloss=0.377778
New "Reactor.TRF_260ET005884969A_R" phases=1 bus1=BT4288727245286056MT02.4 R=15 X=0 basefreq=60
New "Transformer.TRF_260ET005920499A" phases=3 windings=2 buses=["MT4270717245186485MT02.1.2.3" "BT4270700545186579MT02.1.2.3.4"] conns=[Delta Wye] kvs=[13.8 0.22] taps=[1 1.0] kvas=[45.0 45.0] %loadloss=1.722222 %noloadloss=0.377778
New "Reactor.TRF_260ET005920499A_R" phases=1 bus1=BT4270700545186579MT02.4 R=15 X=0 basefreq=60
New "Transformer.TRF_260ET006216909A" phases=1 windings=3 buses=["MT4250741945915268MT02.3.0" "BT4250692745915054MT02.1.4" "BT4250692745915054MT02.4.2"] conns=[Wye Wye Wye] kvs=[7.967 0.12 0.12] taps=[1 1.0 1.0] kvas=[10.0 10.0 10.0] %loadloss=2.000000 %noloadloss=0.450000
New "Reactor.TRF_260ET006216909A_R" phases=1 bus1=BT4250692745915054MT02.4 R=15 X=0 basefreq=60
New "Transformer.TRF_260ET006346769A" phases=3 windings=2 buses=["MT4289144545284211MT02.1.2.3" "BT428914345284457MT02.1.2.3.4"] conns=[Delta Wye] kvs=[13.8 0.22] taps=[1 1.0] kvas=[112.5 112.5] %loadloss=1.333333 %noloadloss=0.346667
New "Reactor.TRF_260ET006346769A_R" phases=1 bus1=BT428914345284457MT02.4 R=15 X=0 basefreq=60
New "Transformer.TRF_260ET006625449A" phases=1 windings=3 buses=["MT426239145837638MT02.3.0" "BT4262371445837726MT02.1.4" "BT4262371445837726MT02.4.2"] conns=[Wye Wye Wye] kvs=[7.967 0.12 0.12] taps=[1 1.046834 1.046834] kvas=[25.0 25.0 25.0] %loadloss=1.600000 %noloadloss=0.320000
New "Reactor.TRF_260ET006625449A_R" phases=1 bus1=BT4262371445837726MT02.4 R=15 X=0 basefreq=60
New "Transformer.TRF_260ET006628089A" phases=1 windings=3 buses=["MT4262653145798831MT02.3.0" "BT4262663145798884MT02.1.4" "BT4262663145798884MT02.4.2"] conns=[Wye Wye Wye] kvs=[7.967 0.12 0.12] taps=[1 1.0 1.0] kvas=[25.0 25.0 25.0] %loadloss=1.600000 %noloadloss=0.320000
New "Reactor.TRF_260ET006628089A_R" phases=1 bus1=BT4262663145798884MT02.4 R=15 X=0 basefreq=60
New "Transformer.TRF_260RL006376099_AA" phases=1 windings=2 buses=["MT4294639845275639MT02.3.0" "BT353252380ID.1.4"] conns=[Wye Wye] kvs=[7.967 0.1270] taps=[1 1.0] kvas=[3.0 3.0] %loadloss=3.000000 %noloadloss=2.000000
New "Reactor.TRF_260RL006376099_AA_R" phases=1 bus1=BT353252380ID.4 R=15 X=0 basefreq=60
New "Transformer.TRF_295BC005147349_AA" phases=1 windings=2 buses=["MT439259364534294MT02.3.0" "BT215754849ID.1.4"] conns=[Wye Wye] kvs=[7.967 0.1270] taps=[1 1.0] kvas=[3.0 3.0] %loadloss=0.333333 %noloadloss=2.000000
New "Reactor.TRF_295BC005147349_AA_R" phases=1 bus1=BT215754849ID.4 R=15 X=0 basefreq=60
New "Transformer.TRF_295ET000372529A" phases=3 windings=2 buses=["MT4333061345799823MT02.1.2.3" "BT4333049345799825MT02.1.2.3.4"] conns=[Delta Wye] kvs=[13.8 0.22] taps=[1 1.0] kvas=[45.0 45.0] %loadloss=1.666667 %noloadloss=0.433333
New "Reactor.TRF_295ET000372529A_R" phases=1 bus1=BT4333049345799825MT02.4 R=15 X=0 basefreq=60
New "Transformer.TRF_295ET000372559A" phases=1 windings=2 buses=["MT4327556845826316MT02.3.0" "BT4327564745826254MT02.2.3"] conns=[Wye Delta] kvs=[7.967 0.24] taps=[1 1.0] kvas=[25.0 25.0] %loadloss=1.720000 %noloadloss=0.360000
new transformer.TRF_MRT_295ET000372559B phases=1 windings=3 buses=["MT4327556845826316MT02.1.0" "BT4327564745826254MT02.1.4" "BT4327564745826254MT02.4.2"] conns=[Wye Wye Wye] kvs=(7.967 0.12 0.12) kvas=(25.0 25.0 25.0) %loadloss=1.720000 %noloadloss=0.360000
New "Reactor.TRF_295ET000372559B_R" phases=1 bus1=BT4327564745826254MT02.4 R=15 X=0 basefreq=60 
New "Transformer.TRF_295ET000401519A" phases=3 windings=2 buses=["MT4393642645363192MT02.1.2.3" "BT4393639645363287MT02.1.2.3.4"] conns=[Delta Wye] kvs=[13.8 0.22] taps=[1 1.045454] kvas=[45.0 45.0] %loadloss=3.577778 %noloadloss=0.866667
New "Reactor.TRF_295ET000401519A_R" phases=1 bus1=BT4393639645363287MT02.4 R=15 X=0 basefreq=60
New "Transformer.TRF_295ET000401539A" phases=1 windings=3 buses=["MT438824945345952MT02.2.0" "BT4388245945346047MT02.1.4" "BT4388245945346047MT02.4.2"] conns=[Wye Wye Wye] kvs=[7.967 0.12 0.12] taps=[1 1.0 1.0] kvas=[10.0 10.0 10.0] %loadloss=1.950000 %noloadloss=0.500000
New "Reactor.TRF_295ET000401539A_R" phases=1 bus1=BT4388245945346047MT02.4 R=15 X=0 basefreq=60
New "Transformer.TRF_295ET000401549A" phases=3 windings=2 buses=["MT4384597845339913MT02.1.2.3" "BT4384591845340018MT02.1.2.3.4"] conns=[Delta Wye] kvs=[13.8 0.22] taps=[1 1.045454] kvas=[30.0 30.0] %loadloss=1.966667 %noloadloss=0.500000
New "Reactor.TRF_295ET000401549A_R" phases=1 bus1=BT4384591845340018MT02.4 R=15 X=0 basefreq=60
New "Transformer.TRF_295ET000401559A" phases=3 windings=2 buses=["MT438048745405283MT02.1.2.3" "BT43804974540529MT02.1.2.3.4"] conns=[Delta Wye] kvs=[13.8 0.22] taps=[1 1.045454] kvas=[15.0 15.0] %loadloss=2.366667 %noloadloss=0.566667
New "Reactor.TRF_295ET000401559A_R" phases=1 bus1=BT43804974540529MT02.4 R=15 X=0 basefreq=60
New "Transformer.TRF_295ET000401569A" phases=3 windings=2 buses=["MT4379358445337801MT02.1.2.3" "BT4379364845337608MT02.1.2.3.4"] conns=[Delta Wye] kvs=[13.8 0.22] taps=[1 1.045454] kvas=[75.0 75.0] %loadloss=1.520000 %noloadloss=0.340000
New "Reactor.TRF_295ET000401569A_R" phases=1 bus1=BT4379364845337608MT02.4 R=15 X=0 basefreq=60
New "Transformer.TRF_295ET000401999A" phases=3 windings=2 buses=["MT4374772545333992MT02.1.2.3" "BT4374771845334092MT02.1.2.3.4"] conns=[Delta Wye] kvs=[13.8 0.22] taps=[1 1.045454] kvas=[15.0 15.0] %loadloss=2.166667 %noloadloss=0.566667
New "Reactor.TRF_295ET000401999A_R" phases=1 bus1=BT4374771845334092MT02.4 R=15 X=0 basefreq=60
New "Transformer.TRF_295ET000402019A" phases=3 windings=2 buses=["MT4371331645331392MT02.1.2.3" "BT4371332545331292MT02.1.2.3.4"] conns=[Delta Wye] kvs=[13.8 0.22] taps=[1 1.045454] kvas=[45.0 45.0] %loadloss=1.666667 %noloadloss=0.433333
New "Reactor.TRF_295ET000402019A_R" phases=1 bus1=BT4371332545331292MT02.4 R=15 X=0 basefreq=60
New "Transformer.TRF_295ET000402039A" phases=3 windings=2 buses=["MT4370212545346401MT02.1.2.3" "BT437022244534641MT02.1.2.3.4"] conns=[Delta Wye] kvs=[13.8 0.22] taps=[1 1.045454] kvas=[112.5 112.5] %loadloss=1.333333 %noloadloss=0.346667
New "Reactor.TRF_295ET000402039A_R" phases=1 bus1=BT437022244534641MT02.4 R=15 X=0 basefreq=60
New "Transformer.TRF_295ET000402059A" phases=1 windings=3 buses=["MT4368921845328492MT02.3.0" "BT4368921245328592MT02.1.4" "BT4368921245328592MT02.4.2"] conns=[Wye Wye Wye] kvs=[7.967 0.12 0.12] taps=[1 1.0 1.0] kvas=[25.0 25.0 25.0] %loadloss=1.720000 %noloadloss=0.360000
New "Reactor.TRF_295ET000402059A_R" phases=1 bus1=BT4368921245328592MT02.4 R=15 X=0 basefreq=60
New "Transformer.TRF_295ET000402069A" phases=3 windings=2 buses=["MT4365601845326192MT02.1.2.3" "BT4365601145326292MT02.1.2.3.4"] conns=[Delta Wye] kvs=[13.8 0.22] taps=[1 1.045454] kvas=[15.0 15.0] %loadloss=2.500000 %noloadloss=0.566667
New "Reactor.TRF_295ET000402069A_R" phases=1 bus1=BT4365601145326292MT02.4 R=15 X=0 basefreq=60
New "Transformer.TRF_295ET000402199A" phases=1 windings=3 buses=["MT436710845305881MT02.2.0" "BT4367112545305792MT02.1.4" "BT4367112545305792MT02.4.2"] conns=[Wye Wye Wye] kvs=[7.967 0.12 0.12] taps=[1 1.0 1.0] kvas=[10.0 10.0 10.0] %loadloss=2.200000 %noloadloss=0.500000
New "Reactor.TRF_295ET000402199A_R" phases=1 bus1=BT4367112545305792MT02.4 R=15 X=0 basefreq=60
New "Transformer.TRF_295ET000402209A" phases=1 windings=3 buses=["MT4363192545298492MT02.2.0" "BT4363190245298589MT02.1.4" "BT4363190245298589MT02.4.2"] conns=[Wye Wye Wye] kvs=[7.967 0.12 0.12] taps=[1 1.0 1.0] kvas=[15.0 15.0 15.0] %loadloss=1.766667 %noloadloss=0.433333
New "Reactor.TRF_295ET000402209A_R" phases=1 bus1=BT4363190245298589MT02.4 R=15 X=0 basefreq=60
New "Transformer.TRF_295ET000402219A" phases=3 windings=2 buses=["MT4360611645294792MT02.1.2.3" "BT4360612545294692MT02.1.2.3.4"] conns=[Delta Wye] kvs=[13.8 0.22] taps=[1 1.045454] kvas=[75.0 75.0] %loadloss=1.520000 %noloadloss=0.340000
New "Reactor.TRF_295ET000402219A_R" phases=1 bus1=BT4360612545294692MT02.4 R=15 X=0 basefreq=60
New "Transformer.TRF_295ET000402229A" phases=3 windings=2 buses=["MT4359311545293692MT02.1.2.3" "BT4359310645293791MT02.1.2.3.4"] conns=[Delta Wye] kvs=[13.8 0.22] taps=[1 1.045454] kvas=[75.0 75.0] %loadloss=1.500000 %noloadloss=0.360000
New "Reactor.TRF_295ET000402229A_R" phases=1 bus1=BT4359310645293791MT02.4 R=15 X=0 basefreq=60
New "Transformer.TRF_295ET000402239A" phases=3 windings=2 buses=["MT4358722545296102MT02.1.2.3" "BT4358712645296111MT02.1.2.3.4"] conns=[Delta Wye] kvs=[13.8 0.22] taps=[1 1.045454] kvas=[45.0 45.0] %loadloss=1.722222 %noloadloss=0.377778
New "Reactor.TRF_295ET000402239A_R" phases=1 bus1=BT4358712645296111MT02.4 R=15 X=0 basefreq=60
New "Transformer.TRF_295ET000402249A" phases=3 windings=2 buses=["MT4359306145309769MT02.1.2.3" "BT4359299845309846MT02.1.2.3.4"] conns=[Delta Wye] kvs=[13.8 0.22] taps=[1 1.045454] kvas=[75.0 75.0] %loadloss=1.553333 %noloadloss=0.306667
New "Reactor.TRF_295ET000402249A_R" phases=1 bus1=BT4359299845309846MT02.4 R=15 X=0 basefreq=60
New "Transformer.TRF_295ET000402259A" phases=3 windings=2 buses=["MT4360877945322181MT02.1.2.3" "BT4360873245322269MT02.1.2.3.4"] conns=[Delta Wye] kvs=[13.8 0.22] taps=[1 1.045454] kvas=[30.0 30.0] %loadloss=1.966667 %noloadloss=0.500000
New "Reactor.TRF_295ET000402259A_R" phases=1 bus1=BT4360873245322269MT02.4 R=15 X=0 basefreq=60
New "Transformer.TRF_295ET000402269A" phases=3 windings=2 buses=["MT4358560145308657MT02.1.2.3" "BT4358567745308722MT02.1.2.3.4"] conns=[Delta Wye] kvs=[13.8 0.22] taps=[1 1.045454] kvas=[75.0 75.0] %loadloss=1.466667 %noloadloss=0.393333
New "Reactor.TRF_295ET000402269A_R" phases=1 bus1=BT4358567745308722MT02.4 R=15 X=0 basefreq=60
New "Transformer.TRF_295ET000402279A" phases=3 windings=2 buses=["MT435741624531177MT02.1.2.3" "BT4357409945311847MT02.1.2.3.4"] conns=[Delta Wye] kvs=[13.8 0.22] taps=[1 1.0] kvas=[75.0 75.0] %loadloss=1.553333 %noloadloss=0.306667
New "Reactor.TRF_295ET000402279A_R" phases=1 bus1=BT4357409945311847MT02.4 R=15 X=0 basefreq=60
New "Transformer.TRF_295ET000402289A" phases=3 windings=2 buses=["MT435867634532217MT02.1.2.3" "BT4358670145322249MT02.1.2.3.4"] conns=[Delta Wye] kvs=[13.8 0.22] taps=[1 1.045454] kvas=[75.0 75.0] %loadloss=1.553333 %noloadloss=0.306667
New "Reactor.TRF_295ET000402289A_R" phases=1 bus1=BT4358670145322249MT02.4 R=15 X=0 basefreq=60
New "Transformer.TRF_295ET000402299A" phases=3 windings=2 buses=["MT435741545322393MT02.1.2.3" "BT4357407445322329MT02.1.2.3.4"] conns=[Delta Wye] kvs=[13.8 0.22] taps=[1 1.045454] kvas=[75.0 75.0] %loadloss=1.553333 %noloadloss=0.306667
New "Reactor.TRF_295ET000402299A_R" phases=1 bus1=BT4357407445322329MT02.4 R=15 X=0 basefreq=60
New "Transformer.TRF_295ET000402309A" phases=3 windings=2 buses=["MT4355885845313867MT02.1.2.3" "BT4355879245313941MT02.1.2.3.4"] conns=[Delta Wye] kvs=[13.8 0.22] taps=[1 1.045454] kvas=[75.0 75.0] %loadloss=1.553333 %noloadloss=0.306667
New "Reactor.TRF_295ET000402309A_R" phases=1 bus1=BT4355879245313941MT02.4 R=15 X=0 basefreq=60
New "Transformer.TRF_295ET000402319A" phases=3 windings=2 buses=["MT4355680145321657MT02.1.2.3" "BT4355687745321721MT02.1.2.3.4"] conns=[Delta Wye] kvs=[13.8 0.22] taps=[1 1.045454] kvas=[45.0 45.0] %loadloss=3.577778 %noloadloss=0.866667
New "Reactor.TRF_295ET000402319A_R" phases=1 bus1=BT4355687745321721MT02.4 R=15 X=0 basefreq=60
New "Transformer.TRF_295ET000402329A" phases=3 windings=2 buses=["MT4357792645336993MT02.1.2.3" "BT435780784533712MT02.1.2.3.4"] conns=[Delta Wye] kvs=[13.8 0.22] taps=[1 1.045454] kvas=[112.5 112.5] %loadloss=1.333333 %noloadloss=0.346667
New "Reactor.TRF_295ET000402329A_R" phases=1 bus1=BT435780784533712MT02.4 R=15 X=0 basefreq=60
New "Transformer.TRF_295ET000402339A" phases=3 windings=2 buses=["MT43604345331358MT02.1.2.3" "BT4360437645331424MT02.1.2.3.4"] conns=[Delta Wye] kvs=[13.8 0.22] taps=[1 1.0] kvas=[150.0 150.0] %loadloss=1.376667 %noloadloss=0.323333
New "Reactor.TRF_295ET000402339A_R" phases=1 bus1=BT4360437645331424MT02.4 R=15 X=0 basefreq=60
New "Transformer.TRF_295ET000402349A" phases=3 windings=2 buses=["MT436027414535034MT02.1.2.3" "BT4360280445350281MT02.1.2.3.4"] conns=[Delta Wye] kvs=[13.8 0.22] taps=[1 1.0] kvas=[75.0 75.0] %loadloss=1.553333 %noloadloss=0.306667
New "Reactor.TRF_295ET000402349A_R" phases=1 bus1=BT4360280445350281MT02.4 R=15 X=0 basefreq=60
New "Transformer.TRF_295ET000402359A" phases=3 windings=2 buses=["MT4362220345353354MT02.1.2.3" "BT4362228145353417MT02.1.2.3.4"] conns=[Delta Wye] kvs=[13.8 0.22] taps=[1 1.045454] kvas=[45.0 45.0] %loadloss=3.577778 %noloadloss=0.866667
New "Reactor.TRF_295ET000402359A_R" phases=1 bus1=BT4362228145353417MT02.4 R=15 X=0 basefreq=60
New "Transformer.TRF_295ET000402369A" phases=3 windings=2 buses=["MT436406545344661MT02.1.2.3" "BT4364061345344758MT02.1.2.3.4"] conns=[Delta Wye] kvs=[13.8 0.22] taps=[1 1.0] kvas=[112.5 112.5] %loadloss=1.493333 %noloadloss=0.346667
New "Reactor.TRF_295ET000402369A_R" phases=1 bus1=BT4364061345344758MT02.4 R=15 X=0 basefreq=60
New "Transformer.TRF_295ET000402379A" phases=3 windings=2 buses=["MT4364629745384851MT02.1.2.3" "BT4364623445384934MT02.1.2.3.4"] conns=[Delta Wye] kvs=[13.8 0.22] taps=[1 1.045454] kvas=[15.0 15.0] %loadloss=2.366667 %noloadloss=0.566667
New "Reactor.TRF_295ET000402379A_R" phases=1 bus1=BT4364623445384934MT02.4 R=15 X=0 basefreq=60
New "Transformer.TRF_295ET000402389A" phases=3 windings=2 buses=["MT4368046445411671MT02.1.2.3" "BT4368040345411751MT02.1.2.3.4"] conns=[Delta Wye] kvs=[13.8 0.22] taps=[1 1.045454] kvas=[30.0 30.0] %loadloss=1.883333 %noloadloss=0.433333
New "Reactor.TRF_295ET000402389A_R" phases=1 bus1=BT4368040345411751MT02.4 R=15 X=0 basefreq=60
New "Transformer.TRF_295ET000402399A" phases=3 windings=2 buses=["MT4369946445426371MT02.1.2.3" "BT436994024542645MT02.1.2.3.4"] conns=[Delta Wye] kvs=[13.8 0.22] taps=[1 1.0] kvas=[45.0 45.0] %loadloss=3.577778 %noloadloss=0.866667
New "Reactor.TRF_295ET000402399A_R" phases=1 bus1=BT436994024542645MT02.4 R=15 X=0 basefreq=60
New "Transformer.TRF_295ET000402409A" phases=3 windings=2 buses=["MT4369264345438306MT02.1.2.3" "BT4369259845438267MT02.1.2.3.4"] conns=[Delta Wye] kvs=[13.8 0.22] taps=[1 1.045454] kvas=[75.0 75.0] %loadloss=1.553333 %noloadloss=0.306667
New "Reactor.TRF_295ET000402409A_R" phases=1 bus1=BT4369259845438267MT02.4 R=15 X=0 basefreq=60
New "Transformer.TRF_295ET000402419A" phases=3 windings=2 buses=["MT4372710945447619MT02.1.2.3" "BT4372705345447703MT02.1.2.3.4"] conns=[Delta Wye] kvs=[13.8 0.22] taps=[1 1.045454] kvas=[30.0 30.0] %loadloss=1.966667 %noloadloss=0.500000
New "Reactor.TRF_295ET000402419A_R" phases=1 bus1=BT4372705345447703MT02.4 R=15 X=0 basefreq=60
New "Transformer.TRF_295ET000402429A" phases=1 windings=3 buses=["MT4375469845432229MT02.2.0" "BT437547974543221MT02.1.4" "BT437547974543221MT02.4.2"] conns=[Wye Wye Wye] kvs=[7.967 0.12 0.12] taps=[1 1.0 1.0] kvas=[25.0 25.0 25.0] %loadloss=1.720000 %noloadloss=0.360000
New "Reactor.TRF_295ET000402429A_R" phases=1 bus1=BT437547974543221MT02.4 R=15 X=0 basefreq=60
New "Transformer.TRF_295ET000402459A" phases=3 windings=2 buses=["MT4356040345338755MT02.1.2.3" "BT4356048145338817MT02.1.2.3.4"] conns=[Delta Wye] kvs=[13.8 0.22] taps=[1 1.0] kvas=[75.0 75.0] %loadloss=1.553333 %noloadloss=0.306667
New "Reactor.TRF_295ET000402459A_R" phases=1 bus1=BT4356048145338817MT02.4 R=15 X=0 basefreq=60
New "Transformer.TRF_295ET000402469A" phases=3 windings=2 buses=["MT43542845338258MT02.1.2.3" "BT4354287645338323MT02.1.2.3.4"] conns=[Delta Wye] kvs=[13.8 0.22] taps=[1 1.0] kvas=[45.0 45.0] %loadloss=3.755556 %noloadloss=0.866667
New "Reactor.TRF_295ET000402469A_R" phases=1 bus1=BT4354287645338323MT02.4 R=15 X=0 basefreq=60
New "Transformer.TRF_295ET000402479A" phases=3 windings=2 buses=["MT4353760245333556MT02.1.2.3" "BT435376784533362MT02.1.2.3.4"] conns=[Delta Wye] kvs=[13.8 0.22] taps=[1 1.045454] kvas=[45.0 45.0] %loadloss=1.666667 %noloadloss=0.433333
New "Reactor.TRF_295ET000402479A_R" phases=1 bus1=BT435376784533362MT02.4 R=15 X=0 basefreq=60
New "Transformer.TRF_295ET000402489A" phases=3 windings=2 buses=["MT4354135645348487MT02.1.2.3" "BT4354138745348582MT02.1.2.3.4"] conns=[Delta Wye] kvs=[13.8 0.22] taps=[1 1.045454] kvas=[75.0 75.0] %loadloss=1.553333 %noloadloss=0.306667
New "Reactor.TRF_295ET000402489A_R" phases=1 bus1=BT4354138745348582MT02.4 R=15 X=0 basefreq=60
New "Transformer.TRF_295ET000402499A" phases=1 windings=3 buses=["MT4351001145338857MT02.2.0" "BT4351006845338774MT02.1.4" "BT4351006845338774MT02.4.2"] conns=[Wye Wye Wye] kvs=[7.967 0.12 0.12] taps=[1 1.0 1.0] kvas=[10.0 10.0 10.0] %loadloss=2.000000 %noloadloss=0.450000
New "Reactor.TRF_295ET000402499A_R" phases=1 bus1=BT4351006845338774MT02.4 R=15 X=0 basefreq=60
New "Transformer.TRF_295ET000402799A" phases=3 windings=2 buses=["MT4350847645357879MT02.1.2.3" "BT4350842745357966MT02.1.2.3.4"] conns=[Delta Wye] kvs=[13.8 0.22] taps=[1 1.045454] kvas=[75.0 75.0] %loadloss=1.553333 %noloadloss=0.306667
New "Reactor.TRF_295ET000402799A_R" phases=1 bus1=BT4350842745357966MT02.4 R=15 X=0 basefreq=60
New "Transformer.TRF_295ET000402819A" phases=3 windings=2 buses=["MT4337265545437199MT02.1.2.3" "BT4337279245437138MT02.1.2.3.4"] conns=[Delta Wye] kvs=[13.8 0.22] taps=[1 1.045454] kvas=[30.0 30.0] %loadloss=1.816667 %noloadloss=0.500000
New "Reactor.TRF_295ET000402819A_R" phases=1 bus1=BT4337279245437138MT02.4 R=15 X=0 basefreq=60
New "Transformer.TRF_295ET000402829A" phases=3 windings=2 buses=["MT4351150645364615MT02.1.2.3" "BT4351158345364679MT02.1.2.3.4"] conns=[Delta Wye] kvs=[13.8 0.22] taps=[1 1.045454] kvas=[45.0 45.0] %loadloss=3.577778 %noloadloss=0.866667
New "Reactor.TRF_295ET000402829A_R" phases=1 bus1=BT4351158345364679MT02.4 R=15 X=0 basefreq=60
New "Transformer.TRF_295ET000402839A" phases=3 windings=2 buses=["MT4342694945502951MT02.1.2.3" "BT43426854550296MT02.1.2.3.4"] conns=[Delta Wye] kvs=[13.8 0.22] taps=[1 1.045454] kvas=[45.0 45.0] %loadloss=1.666667 %noloadloss=0.433333
New "Reactor.TRF_295ET000402839A_R" phases=1 bus1=BT43426854550296MT02.4 R=15 X=0 basefreq=60
New "Transformer.TRF_295ET000402849A" phases=3 windings=2 buses=["MT435070724553371MT02.1.2.3" "BT4350705245533634MT02.1.2.3.4"] conns=[Delta Wye] kvs=[13.8 0.22] taps=[1 1.0] kvas=[30.0 30.0] %loadloss=2.066667 %noloadloss=0.500000
New "Reactor.TRF_295ET000402849A_R" phases=1 bus1=BT4350705245533634MT02.4 R=15 X=0 basefreq=60
New "Transformer.TRF_295ET000402869A" phases=3 windings=2 buses=["MT4355206245623374MT02.1.2.3" "BT4355163445623727MT02.1.2.3.4"] conns=[Delta Wye] kvs=[13.8 0.22] taps=[1 1.0] kvas=[45.0 45.0] %loadloss=1.666667 %noloadloss=0.433333
New "Reactor.TRF_295ET000402869A_R" phases=1 bus1=BT4355163445623727MT02.4 R=15 X=0 basefreq=60
New "Transformer.TRF_295ET000402909A" phases=3 windings=2 buses=["MT4343949445544609MT02.1.2.3" "BT4343959245544586MT02.1.2.3.4"] conns=[Delta Wye] kvs=[13.8 0.22] taps=[1 1.0] kvas=[45.0 45.0] %loadloss=1.722222 %noloadloss=0.377778
New "Reactor.TRF_295ET000402909A_R" phases=1 bus1=BT4343959245544586MT02.4 R=15 X=0 basefreq=60
New "Transformer.TRF_295ET000402919A" phases=3 windings=2 buses=["MT4344736145616995MT02.1.2.3" "BT4344740945616687MT02.1.2.3.4"] conns=[Delta Wye] kvs=[13.8 0.22] taps=[1 1.0] kvas=[15.0 15.0] %loadloss=2.233333 %noloadloss=0.500000
New "Reactor.TRF_295ET000402919A_R" phases=1 bus1=BT4344740945616687MT02.4 R=15 X=0 basefreq=60
New "Transformer.TRF_295ET000402929A" phases=1 windings=3 buses=["MT4332546745780942MT02.2.0" "BT4332555645780972MT02.1.4" "BT4332555645780972MT02.4.2"] conns=[Wye Wye Wye] kvs=[7.967 0.12 0.12] taps=[1 1.0 1.0] kvas=[10.0 10.0 10.0] %loadloss=2.000000 %noloadloss=0.450000
New "Reactor.TRF_295ET000402929A_R" phases=1 bus1=BT4332555645780972MT02.4 R=15 X=0 basefreq=60
New "Transformer.TRF_295ET000402939A" phases=3 windings=2 buses=["MT4334691945778275MT02.1.2.3" "BT4334685145778361MT02.1.2.3.4"] conns=[Delta Wye] kvs=[13.8 0.22] taps=[1 1.0] kvas=[30.0 30.0] %loadloss=1.966667 %noloadloss=0.500000
New "Reactor.TRF_295ET000402939A_R" phases=1 bus1=BT4334685145778361MT02.4 R=15 X=0 basefreq=60
New "Transformer.TRF_295ET000402949A" phases=3 windings=2 buses=["MT4329265645700938MT02.1.2.3" "BT4329268345701034MT02.1.2.3.4"] conns=[Delta Wye] kvs=[13.8 0.22] taps=[1 1.0] kvas=[30.0 30.0] %loadloss=1.966667 %noloadloss=0.500000
New "Reactor.TRF_295ET000402949A_R" phases=1 bus1=BT4329268345701034MT02.4 R=15 X=0 basefreq=60
New "Transformer.TRF_295ET000402959A" phases=1 windings=2 buses=["MT43182674579176MT02.1.0" "BT4318259645791692MT02.2.3"] conns=[Wye Delta] kvs=[7.967 0.24] taps=[1 1.0] kvas=[10.0 10.0] %loadloss=1.828571 %noloadloss=0.400000
new transformer.TRF_MRT_295ET000402959B phases=1 windings=3 buses=["MT43182674579176MT02.2.0" "BT4318259645791692MT02.1.4" "BT4318259645791692MT02.4.2"] conns=[Wye Wye Wye] kvs=(7.967 0.12 0.12) kvas=(25.0 25.0 25.0) %loadloss=1.828571 %noloadloss=0.400000
New "Reactor.TRF_295ET000402959B_R" phases=1 bus1=BT4318259645791692MT02.4 R=15 X=0 basefreq=60 
New "Transformer.TRF_295ET000402969A" phases=1 windings=3 buses=["MT4313092645859814MT02.2.0" "BT4313102645859803MT02.1.4" "BT4313102645859803MT02.4.2"] conns=[Wye Wye Wye] kvs=[7.967 0.12 0.12] taps=[1 1.0 1.0] kvas=[15.0 15.0 15.0] %loadloss=1.933333 %noloadloss=0.433333
New "Reactor.TRF_295ET000402969A_R" phases=1 bus1=BT4313102645859803MT02.4 R=15 X=0 basefreq=60
New "Transformer.TRF_295ET000402989A" phases=1 windings=3 buses=["MT4297284845980912MT02.2.0" "BT4297277645980843MT02.1.4" "BT4297277645980843MT02.4.2"] conns=[Wye Wye Wye] kvs=[7.967 0.12 0.12] taps=[1 1.0 1.0] kvas=[10.0 10.0 10.0] %loadloss=2.100000 %noloadloss=0.500000
New "Reactor.TRF_295ET000402989A_R" phases=1 bus1=BT4297277645980843MT02.4 R=15 X=0 basefreq=60
...