cenarios/RMTQ1302_TSEA/DU_7_TrechoMT_391_MTQ_RMTQ1302.dss
! DU_7_TrechoMT_391_MTQ_RMTQ1302
New "Line.SMT_290289581_B" phases=3 bus1="MT4370552745444622MT02.1.2.3" bus2="MT4370551845444634MT02.1.2.3" linecode="70AX3MT5AZN1_3" length=0.00015465 units=km
New "Line.SMT_27003847_B" phases=3 bus1="MT435691784532248MT02.1.2.3" bus2="MT4356916545322472MT02.1.2.3" linecode="70AX3MT5AZN1_3" length=0.00015774 units=km
New "Line.SMT_27026382_B" phases=3 bus1="MT4376839145337139MT02.1.2.3" bus2="MT4376838945337154MT02.1.2.3" linecode="70AX3MT5AZN1_3" length=0.00015568 units=km
New "Line.SMT_27032761_B" phases=3 bus1="MT438127754534237MT02.1.2.3" bus2="MT4381278145342384MT02.1.2.3" linecode="70AX3MT5AZN1_3" length=0.00015671 units=km
New "Line.SMT_351552365_B" phases=3 bus1="MT4353472645351632MT02.1.2.3" bus2="MT4353471245351638MT02.1.2.3" linecode="70AX3MT5AZN1_3" length=0.00015671 units=km
New "Line.SMT_347392644_B" phases=3 bus1="MT4357620345319985MT02.1.2.3" bus2="MT4357619345319997MT02.1.2.3" linecode="70AX3MT5AZN1_3" length=0.00016084 units=km
New "Line.SMT_290289538_B" phases=3 bus1="MT4370958245439436MT02.1.2.3" bus2="MT4370957245439448MT02.1.2.3" linecode="70AX3MT5AZN1_3" length=0.00016084 units=km
New "Line.SMT_27090448_B" phases=3 bus1="MT4374270345465555MT02.1.2.3" bus2="MT4374269245465566MT02.1.2.3" linecode="70AX3MT5AZN1_3" length=0.00016084 units=km
New "Line.SMT_27047641_B" phases=3 bus1="MT436780214532938MT02.1.2.3" bus2="MT4367802545329395MT02.1.2.3" linecode="70AX3MT5AZN1_3" length=0.00015981 units=km
New "Line.SMT_214846358_B" phases=3 bus1="MT4371046945434804MT02.1.2.3" bus2="MT43710164543518MT02.1.2.3" linecode="70AX3MT5AZN1_3" length=0.00501788 units=km
New "Line.SMT_290069181_B" phases=3 bus1="MT4373690645455211MT02.1.2.3" bus2="MT4374017345457747MT02.1.2.3" linecode="70AX3MT5AZN1_3" length=0.04264010 units=km
New "Line.SMT_70829640_B" phases=3 bus1="MT437369824544223MT02.1.2.3" bus2="MT4373977645444553MT02.1.2.3" linecode="70AX3MT5AZN1_3" length=0.03746242 units=km
New "Line.SMT_214029397_B" phases=3 bus1="MT4376568345397623MT02.1.2.3" bus2="MT4376510645399611MT02.1.2.3" linecode="70AX3MT5AZN1_3" length=0.02134170 units=km
New "Line.SMT_70829635_B" phases=3 bus1="MT4373977645444553MT02.1.2.3" bus2="MT437425745446858MT02.1.2.3" linecode="70AX3MT5AZN1_3" length=0.03734385 units=km
New "Line.SMT_214029408_B" phases=3 bus1="MT437666845391897MT02.1.2.3" bus2="MT4376645545394795MT02.1.2.3" linecode="70AX3MT5AZN1_3" length=0.02996808 units=km
New "Line.SMT_357549178_B" phases=3 bus1="MT436793145390227MT02.1.2.3" bus2="MT4367773345388939MT02.1.2.3" linecode="70AX3MT5AZN1_3" length=0.02099219 units=km
New "Line.SMT_290289583_B" phases=3 bus1="MT4370551845444634MT02.1.2.3" bus2="MT4370550545444652MT02.1.2.3" linecode="70AX3MT5AZN1_3" length=0.00022888 units=km
New "Line.SMT_357549000_B" phases=3 bus1="MT4367298645398558MT02.1.2.3" bus2="MT436735794539903MT02.1.2.3" linecode="70AX3MT5AZN1_3" length=0.00781395 units=km
New "Line.SMT_141393697_B" phases=3 bus1="MT4374920345456959MT02.1.2.3" bus2="MT4374689545455052MT02.1.2.3" linecode="70AX3MT5AZN1_3" length=0.03086711 units=km
New "Line.SMT_351586118_B" phases=3 bus1="MT4354443645348091MT02.1.2.3" bus2="MT4354135645348487MT02.1.2.3" linecode="70AX3MT5AZN1_3" length=0.03201667 units=km
New "Line.SMT_106525654_B" phases=3 bus1="MT4357205745324795MT02.1.2.3" bus2="MT4356924945322526MT02.1.2.3" linecode="70AX3MT5AZN1_3" length=0.03722116 units=km
New "Line.SMT_106525649_B" phases=3 bus1="MT4357205745324795MT02.1.2.3" bus2="MT4356960145327857MT02.1.2.3" linecode="70AX3MT5AZN1_3" length=0.04046984 units=km
New "Line.SMT_351552410_B" phases=3 bus1="MT4353783645350271MT02.1.2.3" bus2="MT4353498245351507MT02.1.2.3" linecode="70AX3MT5AZN1_3" length=0.03206513 units=km
New "Line.SMT_216434180_B" phases=3 bus1="MT4375998645414382MT02.1.2.3" bus2="MT437611845410968MT02.1.2.3" linecode="70AX3MT5AZN1_3" length=0.03728921 units=km
New "Line.SMT_290289575_B" phases=3 bus1="MT4370732845442127MT02.1.2.3" bus2="MT4370552745444622MT02.1.2.3" linecode="70AX3MT5AZN1_3" length=0.03172490 units=km
New "Line.SMT_2326174_B" phases=3 bus1="MT4371889145298413MT02.1.2.3" bus2="MT437225845298573MT02.1.2.3" linecode="70AX3MT5AZN1_3" length=0.03806967 units=km
New "Line.SMT_290069153_B" phases=3 bus1="MT4374332345460116MT02.1.2.3" bus2="MT4374588445461908MT02.1.2.3" linecode="70AX3MT5AZN1_3" length=0.03222597 units=km
New "Line.SMT_135924860_B" phases=3 bus1="MT437336764544403MT02.1.2.3" bus2="MT4373106645442045MT02.1.2.3" linecode="70AX3MT5AZN1_3" length=0.03380752 units=km
New "Line.SMT_355182652_B" phases=3 bus1="MT4375673245420685MT02.1.2.3" bus2="MT4375904245417705MT02.1.2.3" linecode="70AX3MT5AZN1_3" length=0.03887385 units=km
New "Line.SMT_135924854_B" phases=3 bus1="MT4373480345444887MT02.1.2.3" bus2="MT4373378545444113MT02.1.2.3" linecode="70AX3MT5AZN1_3" length=0.01318443 units=km
...